/*--------------------------------*- C++ -*----------------------------------*\
  =========                 |
  \\      /  F ield         | OpenFOAM: The Open Source CFD Toolbox
   \\    /   O peration     | Website:  https://openfoam.org
    \\  /    A nd           | Version:  8
     \\/     M anipulation  |
\*---------------------------------------------------------------------------*/
/*   Windows 32 and 64 bit porting by blueCAPE: http://www.bluecape.com.pt   *\
|  Based on Windows porting (2.0.x v4) by Symscape: http://www.symscape.com   |
\*---------------------------------------------------------------------------*/
FoamFile
{
    version     2.0;
    format      ascii;
    class       scalarListList;
    location    "constant/vegetation";
    object      F;
}
// * * * * * * * * * * * * * * * * * * * * * * * * * * * * * * * * * * * * * //


2023
(

949
(
0.010225965
0.010337105
0.010183241
0.0063845584
0.0037661113
0.00040794994
0.0010325961
0.0015471593
0.0018906613
0.0019256251
0.001950052
0.0018475047
0.0017011975
0.001857113
0.13434907
0.03864567
0.014849094
0.006903149
0.0051578987
0.0027525228
0.0018934604
0.0013179053
0.0011413696
0.043361413
0.04393268
0.011485738
0.0043495856
0.0022036061
0.0028157983
0.0024440793
0.0018404034
0.00107233
0.00050677153
0.00023340538
0.00011622501
6.353292e-05
3.7649523e-05
2.3800885e-05
1.5839146e-05
8.7309021e-06
5.2779069e-05
0.0017057305
0.016790953
0.017744514
0.0090639928
0.0018907304
0.0013029327
0.0021381964
0.0029585912
0.0022090108
0.0011816392
0.00059929762
0.00031603633
0.00017849914
0.00010790672
6.9072204e-05
3.2908595e-05
0.00045934218
0.00081019476
0.0058022547
0.0014263862
0.00031128673
0.00033031123
0.0009192992
0.0004899857
0.0017137095
6.5784414e-05
0.0081813838
0.0066897452
0.0012945738
0.00053453107
0.00086423385
0.00082267979
0.0005607834
0.0004034373
0.00024409149
0.00015492019
0.00010240547
6.4855045e-05
4.9747127e-05
0.0063657424
0.00098335739
0.00021608551
0.0003233478
0.00037174075
0.0010592104
0.00014678766
0.00010519664
0.00013512925
9.0140439e-05
0.00017838954
0.00022356307
0.0044453274
0.0008506697
0.00076391492
0.00025097655
7.6239049e-05
7.942582e-05
0.00010190379
9.4060507e-05
8.3115888e-05
0.00021026386
0.00014116028
7.1930825e-05
0.0032476304
0.00022925426
0.00013469276
0.00015736204
0.00024816152
0.00013781456
0.00018949781
9.9234849e-05
3.8261525e-05
0.00011437657
0.001099326
0.00063286339
0.00051208661
0.00012714498
0.00011681548
9.2787003e-05
4.1796287e-05
6.1062079e-05
0.00018406679
6.4114966e-05
0.0005710634
0.000361017
0.00019876697
0.00011725759
0.00018671262
6.4956959e-05
0.0026532253
0.00044008585
0.0002323202
0.00031948404
0.00014050055
0.00015719377
0.00010883805
0.00010755277
0.00017764487
9.8394227e-05
0.00080081654
0.00026680271
0.00016717118
0.00026789781
5.3541757e-05
6.0655358e-05
8.3278593e-05
0.00016503807
0.00015420104
0.00011233338
4.0380979e-05
0.00071142745
0.00022656041
4.2791955e-05
0.00011493442
0.0001102545
0.0014993598
0.00011140101
0.00059759789
7.2462177e-05
6.9830929e-05
0.00011081349
0.00084147794
7.1969081e-05
8.1365312e-05
5.918002e-05
0.00012187911
5.0731261e-05
5.6956423e-05
0.00011688639
0.00043582569
0.0011544136
0.00022968445
8.2171702e-05
3.9469737e-05
5.8555945e-05
6.9772552e-05
0.00080258459
9.8050658e-05
6.333345e-05
0.00058157679
5.1791266e-05
5.7561167e-05
5.7686876e-05
5.4174853e-05
7.54002e-05
0.00070698144
0.00024480321
5.0906916e-05
0.00017791628
0.00012175262
3.8666822e-05
0.0002765787
5.726497e-05
0.00012535382
4.8809822e-05
7.9451524e-05
5.8087527e-05
0.0005301253
4.011879e-05
3.8863587e-05
3.9480464e-05
5.636184e-05
0.00049550339
5.3549875e-05
2.9139961e-05
2.5277053e-05
1.6574877e-05
2.5080326e-05
0.00046021839
2.4594954e-05
6.0935052e-05
0.00014807537
0.00034043256
0.0004012048
0.0003301825
0.00032147241
4.0692172e-05
1.4612376e-05
0.00019201744
4.8328175e-05
4.2163317e-05
0.00025932857
0.00025277012
0.00021335044
4.0575524e-05
3.5625428e-05
0.0002071781
0.00020189323
1.417614e-05
0.00018873476
3.5020377e-05
7.1626774e-05
0.00016803603
0.00024217683
0.00020408275
0.00011824264
7.3197491e-05
2.3260801e-05
4.177859e-05
8.2110107e-05
3.3098369e-05
6.7930734e-05
3.3899626e-05
6.4475171e-05
4.7463512e-05
1.9749421e-05
2.4394105e-05
2.0965523e-05
0.12155714
0.082665271
0.065605703
0.059302354
0.0045354498
0.00031331855
9.3660896e-05
2.2096513e-05
8.610735e-05
6.2138238e-05
0.022336963
0.015178959
0.0072316229
0.0038614806
0.0016026682
0.00054622039
0.00022332309
0.00013587727
0.0066528594
0.0055400089
0.0034148769
0.0019153851
0.0010143917
0.0005124716
0.00026492799
0.00010067027
0.0001551417
0.0027011532
0.0024512245
0.0018106989
0.0011732048
0.00072016611
0.00042925155
0.00025592471
0.00020283084
0.00011532105
0.0013367592
0.0012610459
0.0010299269
0.000748209
0.00051611089
0.00034337128
0.0001434122
0.00020786522
0.00075275168
0.00072385866
0.0006260678
0.0004961044
0.00037170708
0.00026799327
9.6693778e-05
0.00012679251
0.00017221335
0.00046336514
0.00045077816
0.00040502061
0.00033933014
0.00026981212
0.00020722915
0.00010691102
0.00013376149
0.00033103289
0.00031853231
3.2858969e-06
0.0015763864
0.0015903047
0.0033412174
0.0014466209
0.0015683693
0.00094774634
0.0021557477
0.00061668766
0.00020336449
0.00044736833
0.00048327111
0.00029860311
8.5018446e-05
0.0005397759
9.0167068e-05
7.1978881e-05
3.8929266e-05
0.00034421241
0.00024584787
0.00022106757
8.7728146e-05
6.5420109e-05
9.14121e-05
9.5785967e-05
3.5093622e-05
0.00047345373
0.00041205612
0.00042765092
0.00068528381
0.0010919844
0.00091805832
0.003315027
0.00033883632
0.00034917865
0.0012234783
0.00063921518
0.001188996
0.00092278625
0.00071945174
0.0013475696
0.00062451653
0.00068346766
0.00060909911
0.00058249626
0.00046181538
0.0011986965
0.00078797694
0.00083727848
0.00057259561
0.00049384129
0.0005458488
0.0010239365
0.00061492557
0.00068098615
0.0011579747
0.0012393832
0.00076356273
0.00063976302
0.00063819459
0.00050883495
0.00098622995
0.00071499372
0.00052190008
0.00090336349
0.00089729481
0.00064925285
0.00059703688
0.00067540879
0.0010184227
0.00077650549
0.00058645914
0.0006274738
0.001179622
0.0010037031
0.00057198842
0.00056028895
0.00068787738
0.0011842595
0.00052769897
0.00060671943
0.00071303569
0.00063221533
0.00063511517
0.0010528131
0.0003022771
4.9636055e-05
3.7355632e-05
4.6482039e-05
3.6456105e-05
3.7255667e-05
2.1369103e-05
4.4951027e-05
4.0071911e-05
0.00012279149
6.3272129e-05
5.3574204e-05
0.00031720324
0.00037042569
6.4573721e-05
0.0005282254
0.00054399894
0.00019596026
0.00019857236
0.00024082929
0.00017299433
0.00015394917
0.00020698053
7.2859551e-05
8.622253e-05
7.63457e-05
6.4413464e-05
4.8669459e-05
8.8458208e-05
0.00063710302
0.00044244197
0.00064558563
0.00024636365
0.00021797424
0.00015659999
0.00021059171
0.00016677074
0.00014436812
0.00013197883
0.00014028045
9.7253303e-05
0.00017264107
0.00016688068
0.00014178305
0.00012551754
9.3171257e-05
7.3409895e-05
0.00021259426
0.00012061052
0.00010908377
9.3637762e-05
0.00010410655
7.6393185e-05
6.5959732e-05
7.8636588e-05
0.00024179599
0.00019843218
0.00018035915
0.00020815093
0.00017730544
0.0001256179
0.0001150001
7.8141148e-05
6.8694366e-05
6.8737613e-05
5.8748209e-05
0.0023469788
0.00026203159
0.0001776604
9.6659532e-05
8.8069808e-05
0.00010335582
7.5123277e-05
0.00020288558
0.00021367371
0.0001603786
0.00017059166
0.00012350121
0.00011320885
0.00010444107
8.8312452e-05
8.1604102e-05
7.7007809e-05
0.00031162748
0.00027402174
9.5106167e-05
0.00010222432
8.1364667e-05
7.7720138e-05
0.00020016384
0.00014477536
0.00012300556
0.00010939051
0.00019011776
0.00011356191
6.8532272e-05
0.00011276917
0.00022009711
0.00015588764
0.00017043847
0.00013975098
7.7149143e-05
0.00012862205
0.00010303875
0.00065533895
0.00030758327
0.00023551409
0.00021421609
0.00017048382
0.000134849
0.00010597967
0.000108692
0.00021470357
0.00028119102
0.00014346959
0.00012581825
0.00041189852
0.00022665212
0.00020501638
0.00013230006
0.00068252494
0.00016311978
0.00026660076
0.00017839644
0.0006427376
0.00031131087
0.00024293649
3.6615214e-05
0.00043891918
0.00030536141
0.00022665897
0.00031492957
0.0002520677
0.00057390796
0.00033035976
0.00018393314
7.9893207e-05
6.6450299e-05
0.0001395008
0.00010445019
0.000100588
7.8293453e-05
0.00013531394
6.2566751e-05
8.2584034e-05
7.549576e-05
5.718807e-05
6.9815352e-05
6.5292928e-05
5.1310927e-05
6.9836569e-05
7.4125991e-05
5.934133e-05
8.2091004e-05
5.3438109e-05
5.6802232e-05
5.9615288e-05
4.9252684e-05
6.8457872e-05
5.5938787e-05
5.7512611e-05
4.9487971e-05
4.0834677e-05
4.8116672e-05
5.1696806e-05
4.738358e-05
5.0001454e-05
4.6321379e-05
4.4320691e-05
4.5923708e-05
4.901855e-05
5.3706268e-05
5.6288041e-05
4.8511378e-05
4.0116928e-05
3.5865216e-05
7.7131911e-05
4.700418e-05
4.0258117e-05
4.3008471e-05
3.0933597e-05
4.382611e-05
4.1497781e-05
4.6574242e-05
3.775278e-05
3.9527017e-05
3.8387326e-05
3.3248842e-05
3.590007e-05
3.0621963e-05
3.844786e-05
3.3411219e-05
3.6322159e-05
0.00086918647
0.00081035903
3.5998057e-05
4.2764604e-05
3.3287763e-05
3.4331049e-05
5.1152945e-05
3.9366527e-05
4.0616368e-05
6.9502884e-05
9.0811381e-05
5.1900797e-05
4.4720236e-05
5.257554e-05
5.2264352e-05
2.2535163e-05
0.00088387045
1.8362594e-05
0.00081961755
0.00026409346
0.00020750893
0.0001452834
0.00015789371
0.00018309617
0.00019084267
0.00016153787
8.8227437e-06
1.5135112e-05
0.00029832794
0.00031280943
0.00023495886
0.00017076118
0.00028613113
4.3403374e-05
3.5221516e-05
4.2154861e-05
2.4851543e-05
3.2838391e-05
3.107027e-05
2.6049702e-05
2.1257738e-05
6.4516926e-05
3.1052029e-05
2.5170601e-05
2.331739e-05
3.1299047e-05
2.1333862e-05
2.0140397e-05
3.3857804e-05
2.3813571e-05
2.1025496e-05
1.9122346e-05
2.2395039e-05
3.6704069e-05
2.7785016e-05
2.6124677e-05
2.0587184e-05
1.9428505e-05
1.8521155e-05
3.0776578e-05
0.00022449476
0.00017904284
3.2373204e-05
2.075039e-05
2.5703308e-05
2.9734423e-05
2.5157317e-05
4.8068976e-05
3.1101834e-05
4.7277039e-05
2.7242358e-05
3.1012785e-05
1.8189842e-05
1.7629827e-05
3.5421288e-05
2.7048955e-05
2.9053969e-05
2.7371927e-05
2.290745e-05
2.1157686e-05
2.748551e-05
2.2572298e-05
1.7515075e-05
2.5171867e-05
2.1390519e-05
2.84463e-05
3.827384e-05
2.5449539e-05
2.3474522e-05
1.8742512e-05
3.2094571e-05
4.3430345e-05
3.0179747e-05
1.7926191e-05
3.1375033e-05
2.400459e-05
2.8357288e-05
2.4237025e-05
2.9025081e-05
3.5205586e-05
1.8612552e-05
1.9122724e-05
2.6453042e-05
2.9216649e-05
2.4193479e-05
2.7706683e-05
1.9411781e-05
2.7047196e-05
1.8244902e-05
2.1440515e-05
1.7594907e-05
1.6960277e-05
1.57531e-05
2.2596007e-05
1.8145317e-05
2.4948356e-05
1.7277126e-05
1.5333862e-05
2.007524e-05
1.5103262e-05
2.3149594e-05
2.8184533e-05
2.028009e-05
1.5816635e-05
1.5295329e-05
1.4605333e-05
1.4292628e-05
2.4508135e-05
2.9597334e-05
2.371294e-05
2.0859414e-05
1.5097918e-05
2.1208406e-05
2.0106772e-05
2.0433009e-05
1.5375042e-05
1.6306065e-05
1.8569671e-05
1.8294342e-05
1.780101e-05
1.5753645e-05
2.4021291e-05
1.56507e-05
1.4186502e-05
1.6390964e-05
2.4343835e-05
2.4335768e-05
1.821129e-05
0.00019044044
0.00012385195
2.1455642e-05
8.7576763e-06
8.8239267e-07
4.521112e-05
5.5858951e-06
0.00013574651
1.8523113e-05
0.00017646292
1.4956936e-05
0.00010444871
7.1159337e-06
7.5394123e-06
8.9130275e-05
7.730565e-07
2.6886636e-07
4.9978475e-05
0.00035623454
6.955508e-05
6.499152e-05
0.0004207304
0.00014985641
3.8582789e-06
0.00019943897
0.00021952939
0.00022311946
0.00022338276
8.54561e-05
0.0001745884
0.00023312746
0.00031548913
3.1226226e-06
2.4582795e-06
1.5561558e-06
1.0097299e-06
4.8610997e-06
5.1582817e-06
1.2531673e-07
1.3681012e-05
5.6796399e-06
6.2350689e-06
0.00015258836
1.2973477e-07
0.00017337281
5.7531844e-06
1.0701412e-05
2.9502723e-05
2.8781867e-05
5.2631667e-05
5.5111914e-05
6.5512975e-05
1.9674496e-05
2.5897652e-05
2.9845083e-05
4.072963e-05
4.3669328e-05
1.511801e-05
5.0606599e-05
2.8713105e-05
3.5624879e-05
3.5272957e-05
3.167899e-05
2.1511463e-05
1.4239741e-05
2.2264661e-05
6.2289887e-05
4.7506843e-05
2.123493e-05
3.0852129e-05
6.067378e-05
3.25209e-05
4.3308365e-05
3.1638342e-05
2.5836402e-05
3.2883923e-05
2.7727651e-05
2.5488056e-05
8.2285636e-05
3.3868844e-05
2.5202788e-05
6.5044746e-05
6.1058795e-05
3.3680718e-05
4.4403979e-05
4.782487e-05
6.4020187e-05
9.7485509e-05
3.8849794e-05
4.9119242e-05
4.4780537e-05
3.3098874e-05
1.827805e-05
1.1220532e-05
6.1064685e-05
4.8344887e-05
3.8580121e-05
3.5492216e-05
4.8780196e-05
5.2124154e-05
6.1798913e-05
2.9204931e-05
3.8101307e-05
1.8919168e-05
5.282489e-05
3.7844519e-05
6.3457625e-05
4.6635066e-05
7.9157401e-05
2.5523384e-05
4.0853901e-05
1.9738419e-05
7.2679989e-06
3.2714009e-05
2.5790886e-05
2.2294182e-05
4.193503e-05
6.3687013e-05
4.4592043e-05
6.1310341e-05
5.7690135e-05
7.2263371e-05
3.408204e-05
2.7277597e-05
1.8158032e-05
1.8093606e-05
2.1046183e-05
1.3290237e-05
6.5172099e-05
5.8933461e-05
4.3910576e-05
4.6029593e-05
7.5460518e-05
5.6319291e-05
3.1345205e-05
3.2767661e-05
7.2432038e-05
5.9402259e-05
4.3400061e-05
2.4781808e-05
3.4073054e-05
3.2450141e-05
2.2706097e-05
1.5019541e-05
1.1802942e-05
3.493942e-05
3.0346075e-05
3.2146171e-05
1.9742987e-05
1.2395101e-05
2.9186366e-05
1.5803963e-05
4.6050205e-05
2.6820833e-05
2.5754996e-05
1.7307555e-05
1.0849996e-05
2.9561941e-05
9.2737747e-06
4.0667922e-05
3.9091878e-05
6.733226e-05
3.8668765e-05
3.5794061e-05
4.738573e-05
5.9919657e-05
3.8284701e-05
5.2496873e-05
1.6058398e-05
2.4683741e-05
1.710787e-05
3.1261839e-05
2.1968719e-05
1.7066164e-05
2.7089623e-05
2.7149901e-05
2.2423445e-05
2.1891074e-05
7.0669235e-05
6.9672519e-05
3.1215549e-05
3.4809137e-05
6.8104237e-05
5.0872099e-05
1.6679089e-05
6.0623633e-05
5.0015326e-05
4.2321652e-05
1.2981227e-05
1.9094927e-05
1.7945936e-05
2.3805517e-05
2.886936e-05
2.0999667e-05
1.977695e-05
1.620783e-05
1.9005609e-05
1.6641499e-05
1.9413042e-05
2.5317392e-05
1.869218e-05
4.9308054e-05
2.2064366e-05
2.4221891e-05
1.7538954e-05
2.3721236e-05
1.9098292e-05
3.0865292e-05
7.1533315e-05
2.153828e-05
1.1148977e-05
)


839
(
0.01027697
0.01162735
0.0075164837
0.004452588
0.00048603794
0.0012402404
0.0018703937
0.0022403841
0.0023170516
0.0022889141
0.0021444558
0.0019422554
0.0020719608
0.018227204
0.025900625
0.018613875
0.010166436
0.0084135949
0.0045661005
0.0031834934
0.0022140832
0.0018950884
0.0018275291
0.0093478712
0.043272458
0.050440854
0.044200565
0.043411716
0.0093695076
0.0018232322
0.00056555574
0.00022803995
0.0001091707
5.8841346e-05
3.4541842e-05
2.1631206e-05
1.4245938e-05
9.7691606e-06
5.5311396e-06
3.2825519e-05
0.010041891
0.0031845955
0.0083027442
0.017078398
0.0070312444
0.0054395089
0.0055890383
0.0032439716
0.0013618097
0.00060115509
0.00030152048
0.00016675301
9.939875e-05
6.2895787e-05
4.1715713e-05
2.0969961e-05
0.002009141
0.0033251183
0.0071399817
0.0031009542
0.00091650747
0.0007445281
0.0015567108
0.00057666338
0.0015231468
4.1302336e-05
0.0026238184
0.0039095123
0.0013101562
0.000728462
0.00057778248
0.0004810077
0.00031506383
0.00023098303
0.00014327768
9.3428542e-05
6.3245973e-05
4.1261097e-05
3.2142739e-05
0.0037612495
0.0001653559
0.00021978421
0.00022669022
8.2194654e-05
9.8638642e-05
6.2971787e-05
0.00011482654
0.00013366777
0.0018598168
0.00019585196
9.2121952e-05
5.016418e-05
5.1315423e-05
6.3358559e-05
5.6800823e-05
5.0312362e-05
0.00012893873
8.9034101e-05
4.6421883e-05
0.0019556692
0.00020788859
0.00010902651
2.3230752e-05
7.316442e-05
8.8942912e-05
3.7978402e-05
0.0001162245
4.2046691e-05
0.00040736783
0.0012896399
0.00027938907
0.00011123993
0.00010709695
6.3995372e-05
0.00047123504
0.0002808794
0.00017584157
0.00025284723
4.1936365e-05
5.4856118e-05
0.00015432812
2.879896e-05
0.00040748812
0.00025552816
0.00016071674
3.0571357e-05
8.1661791e-05
0.00079048524
0.00010883697
9.3885649e-05
0.00047390583
0.0001048651
0.00012199118
0.00069121203
5.2064044e-05
3.4788309e-05
2.8846826e-05
5.508851e-05
9.4954686e-05
3.8959855e-05
4.3204064e-05
4.2283001e-05
6.3513457e-05
3.0109085e-05
5.118291e-05
5.3862e-05
0.00045180807
0.00040461164
0.00044478558
4.8843547e-05
2.8208524e-05
4.3060212e-05
4.4290864e-05
4.375209e-05
3.1321866e-05
4.1558301e-05
0.0004292217
3.8913372e-05
4.8433345e-05
9.3039289e-05
2.9338402e-05
0.00011989561
7.9853657e-05
3.6713854e-05
4.3913015e-05
0.00031526262
1.7021758e-05
3.050923e-05
2.9291524e-05
2.9533303e-05
2.2062083e-05
1.9015656e-05
1.243567e-05
1.8713426e-05
0.00028368249
2.3223397e-05
1.8897025e-05
3.6726942e-05
1.8807325e-05
1.8265204e-05
2.1685924e-05
3.1463542e-05
0.00020319667
0.00025770288
0.0002040728
0.00020644887
0.00016054624
0.0001614721
0.00012917272
7.607447e-05
0.00012836546
0.00012839877
0.00010414645
0.00015418268
0.00012585324
5.0205527e-05
2.1012887e-05
1.428831e-05
2.3832579e-05
6.0770702e-05
2.9151308e-05
4.0026527e-05
1.5801353e-05
2.372336e-05
2.1338357e-05
1.8236622e-05
1.7164565e-05
0.022760336
0.082934404
0.082962636
0.02274644
0.0034732376
0.00087595319
0.00031153347
7.1969408e-05
0.00028171763
0.00019383739
0.015865415
0.031749105
0.031747117
0.015853045
0.0052795126
0.0018419519
0.00075489107
0.00043451743
0.007140661
0.010579552
0.01058287
0.0071382132
0.003700699
0.0017730051
0.00087454881
0.00029816284
0.0004741157
0.003504616
0.004476185
0.0045005246
0.0035039584
0.0022882017
0.0013605314
0.00079043472
0.00058939765
0.0003229506
0.0019122337
0.0022517377
0.0022619901
0.0019065746
0.0014253124
0.00097665099
0.00039172096
0.00056760665
0.0011379984
0.0012765159
0.0012782943
0.0011380923
0.00092120738
0.00069261612
0.00024840542
0.00032536174
0.00043645783
0.00072457943
0.00078894512
0.00079013435
0.00072560638
0.00061762007
0.00049585318
0.00025990603
0.00032240339
0.00056830405
0.00068752178
0.00055606131
0.0038846828
0.0080613115
0.010677169
0.003531968
0.0039923222
0.00042796619
0.0018317844
0.00037781742
1.8658373e-05
0.00057776693
0.00050892915
9.7217816e-05
0.00010853546
0.00027294844
0.00025985359
0.00026622755
0.00049838195
0.0010367521
0.00085019887
0.0033409431
0.00023934469
0.00024147506
0.0014736376
0.00049137686
0.0017833174
0.0010328452
0.00082139651
0.0013300949
0.00056723503
0.00062811425
0.00052662615
0.00047928804
0.0024888903
0.0011502871
0.0011398786
0.00067182195
0.00048900955
0.00054095027
0.0017904448
0.00081411851
0.00075527983
0.0033960296
0.0026897356
0.0012742735
0.00095405696
0.00080106218
0.00054068336
0.0010648875
0.00098179833
0.00060223278
0.0024946331
0.0019658773
0.0011037141
0.00091096701
0.00079663149
0.0020701141
0.0010836836
0.00072917427
0.00072609723
0.0028801439
0.0015633973
0.00083024198
0.00071874591
0.0012011965
0.0019663498
0.00063840367
0.00092213923
0.00087270758
2.4346187e-05
0.00080460341
0.00074421613
2.5576626e-05
2.1215739e-05
1.7887295e-05
1.6764899e-05
2.7656902e-05
2.3737947e-05
3.0028445e-05
0.0011282559
0.00025179529
2.1410587e-05
2.3794485e-05
1.9879543e-05
2.1180405e-05
2.3389669e-05
1.7940505e-05
1.5522763e-05
1.3381549e-05
2.8063948e-05
2.5262852e-05
3.1125884e-05
2.5886714e-05
0.00046321329
0.00053272614
0.00030938939
0.00055289276
0.00060155029
0.00015236573
0.00015033426
0.00017696689
0.00012359137
0.00010715607
0.00014039109
0.00072775349
0.00046525966
0.00070704307
0.00015149225
0.00013693785
9.6067487e-05
0.00013773843
0.00010893259
9.2773416e-05
8.3320727e-05
8.9726961e-05
6.0925737e-05
0.00011708406
0.0001126565
9.4552029e-05
8.189195e-05
5.8541366e-05
4.6555872e-05
0.00014750703
7.9735085e-05
7.2988837e-05
6.0467405e-05
6.7184909e-05
4.9291576e-05
4.1762886e-05
4.9623616e-05
0.00018033657
0.00014575284
0.000129558
0.00014860452
0.00012347315
8.6788259e-05
7.8593309e-05
5.0979489e-05
4.4679745e-05
4.4135173e-05
3.7382335e-05
0.0056221614
0.0002083434
0.00013367096
6.5442458e-05
5.8616238e-05
6.8532891e-05
4.864726e-05
0.00015980357
0.00016213743
0.00011956015
0.00012438222
8.8496798e-05
8.0052781e-05
7.2420252e-05
6.0593329e-05
5.4455077e-05
5.087968e-05
0.00026417717
0.0002166301
6.6236448e-05
6.9862108e-05
5.524289e-05
5.1223296e-05
0.00016374123
0.00010889788
9.0470574e-05
7.956384e-05
0.00013671328
8.0226121e-05
4.6566696e-05
7.5723641e-05
0.00018748495
0.00012341456
0.00013136893
0.00010057681
5.3651956e-05
8.9090612e-05
7.0344652e-05
0.0007392751
0.000285649
0.00020971079
0.00018087808
0.00013917626
0.00010179894
7.8743741e-05
7.6806579e-05
0.00018959505
0.00023536024
0.00011251239
9.7070862e-05
0.00038886663
0.00019431082
0.00016391333
9.9994919e-05
0.00092631953
0.00012417532
0.00023830485
0.00014432448
0.00088514462
0.00048013828
0.00051451852
0.00034946083
0.00025578549
0.00034683901
0.00027024926
0.0007331615
0.00042848732
0.00020280734
7.446882e-05
0.00010720863
7.2494057e-05
4.7675825e-05
3.8677881e-05
7.091199e-05
3.3383018e-05
4.5702324e-05
4.2942987e-05
3.4000951e-05
3.735935e-05
3.0752481e-05
4.424815e-05
2.9700486e-05
3.1880193e-05
3.4094418e-05
2.8989012e-05
3.2788194e-05
2.8141086e-05
3.15175e-05
2.8174001e-05
2.3636367e-05
2.7923179e-05
2.5440543e-05
2.3870389e-05
2.591273e-05
2.4875936e-05
2.4872249e-05
2.6275094e-05
2.5271607e-05
2.8162169e-05
2.9978416e-05
2.6285746e-05
2.2120417e-05
2.0245921e-05
3.8166165e-05
2.3717315e-05
2.2096701e-05
2.382331e-05
1.7301486e-05
2.4772208e-05
2.1306779e-05
2.476801e-05
2.044747e-05
2.053735e-05
2.0969745e-05
1.8364975e-05
1.8828907e-05
1.6432433e-05
2.1137411e-05
1.770901e-05
1.95589e-05
0.00088465975
0.0010863361
0.00012314415
0.001615779
3.1915101e-05
0.0015121412
0.00014400937
0.00011161113
7.5916592e-05
8.0447889e-05
9.2130725e-05
0.00019989537
0.00014143489
1.5472367e-05
2.4478144e-05
5.3612212e-05
3.6302726e-05
3.5429497e-05
3.6009144e-05
3.5879287e-05
2.7762382e-05
3.5164446e-05
2.5565183e-05
0.00016952278
0.00012401656
8.8763347e-05
0.0001447386
2.6159841e-05
2.1049293e-05
2.5467269e-05
1.4699504e-05
1.9734075e-05
1.8581793e-05
1.5477863e-05
1.2480998e-05
3.886167e-05
1.8556622e-05
1.5010808e-05
1.3843672e-05
1.8437646e-05
1.2470918e-05
1.1717531e-05
2.0123059e-05
1.4086352e-05
1.2392079e-05
1.1210078e-05
1.3031273e-05
2.2004848e-05
1.6633905e-05
1.5605085e-05
1.2173951e-05
1.1455775e-05
1.0895645e-05
1.7946811e-05
0.00024181175
0.00018574561
1.9209466e-05
1.2262238e-05
1.5061047e-05
1.7387145e-05
1.4656192e-05
2.8633836e-05
1.8463013e-05
2.8105501e-05
1.6127104e-05
1.8240498e-05
1.0682184e-05
1.0342451e-05
2.0938235e-05
1.5959266e-05
1.7130818e-05
1.6123864e-05
1.3368272e-05
1.2320517e-05
1.6126364e-05
1.3230723e-05
1.0254274e-05
1.4698251e-05
1.2509912e-05
1.6535223e-05
2.2310194e-05
1.4834994e-05
1.3669541e-05
1.0888441e-05
1.8598102e-05
2.5144724e-05
1.752047e-05
1.0391609e-05
1.7991738e-05
1.3771946e-05
1.6293528e-05
1.4006304e-05
1.6784948e-05
2.0017842e-05
1.0736398e-05
1.1011624e-05
1.5258923e-05
1.6464532e-05
1.3759827e-05
1.5795471e-05
1.1148225e-05
1.5497505e-05
1.0500847e-05
1.2117054e-05
1.0030971e-05
9.6889919e-06
9.0269686e-06
1.2963739e-05
1.0432083e-05
1.3906692e-05
9.794167e-06
8.7712793e-06
1.1482492e-05
8.6491784e-06
1.2954948e-05
1.5828354e-05
1.1435986e-05
8.9627098e-06
8.6866246e-06
8.3051139e-06
8.1454046e-06
1.3532554e-05
1.6396192e-05
1.3206662e-05
1.1765247e-05
8.5948786e-06
1.2071266e-05
1.1057428e-05
1.1441949e-05
8.6852556e-06
9.2258037e-06
1.0524579e-05
1.0224796e-05
1.0008384e-05
8.9178821e-06
1.3332719e-05
8.7722011e-06
7.9755724e-06
9.2273794e-06
1.3724842e-05
1.3597796e-05
1.0207787e-05
9.8480016e-05
0.00023216012
3.2163357e-05
1.2916419e-05
4.4053775e-06
6.6183833e-05
9.2796493e-06
0.00010436857
3.0236491e-05
8.0068444e-06
0.0003040651
2.3924785e-05
1.0738945e-05
9.7607096e-06
0.00012830392
2.6282889e-07
4.3882314e-05
4.1761774e-05
0.00038429593
0.00014315679
0.00018668708
5.6684286e-05
0.00016994685
0.00017079669
6.0918867e-05
0.00012891612
0.00016347179
0.00022301385
3.493983e-06
3.6152586e-06
8.865161e-07
3.4911317e-06
3.3263613e-06
9.8067905e-06
7.8406958e-06
0.00021803226
1.399152e-07
0.00022562156
8.4740106e-06
3.8990037e-05
1.8411195e-05
0.00012107891
9.0180226e-05
7.1888181e-05
4.3294066e-05
3.1472171e-05
4.9942419e-05
3.7763044e-05
2.6608048e-05
2.1989952e-05
0.00012097954
7.7967301e-05
3.3469228e-05
3.9641609e-05
4.7327148e-05
3.866509e-05
2.5315004e-05
3.6515342e-05
2.4657029e-05
0.00014907862
4.2457948e-05
3.206618e-05
8.6994106e-05
8.0583156e-05
3.7687877e-05
5.4893208e-05
6.0948275e-05
1.5740679e-05
2.2957688e-05
4.2155385e-05
0.0001168988
0.00018016125
6.8226786e-05
6.5526241e-05
6.163711e-05
3.4114452e-05
1.2374565e-05
2.6109975e-05
2.6453165e-05
1.6930271e-05
9.4188799e-05
6.2113309e-05
5.4847896e-05
4.2935013e-05
6.3509444e-05
6.4133812e-05
2.8441084e-05
5.0879633e-05
2.0034306e-05
4.5337145e-05
7.3802208e-05
0.00010913919
3.1337665e-05
4.3039947e-05
2.3833922e-05
8.7488442e-06
4.0362625e-05
3.4313697e-05
3.2291139e-05
6.323234e-05
8.8548072e-05
6.5234661e-05
9.30601e-05
0.00010753073
0.00011911478
2.1252916e-05
2.2537034e-05
2.0630304e-05
0.00012732188
0.00012204043
8.431696e-05
7.7330789e-05
0.00015394274
9.6682645e-05
4.9135668e-05
0.00011533696
9.7466969e-05
8.4772712e-05
2.5013459e-05
4.1576811e-05
3.3702101e-05
3.0554513e-05
2.100288e-05
1.4928127e-05
3.7746723e-05
2.4607614e-05
1.6317044e-05
4.0331781e-05
6.6255963e-05
4.0401613e-05
4.5068523e-05
1.2183846e-05
5.6181715e-05
3.896548e-05
0.00010795353
0.00010424046
4.3085222e-05
2.1643398e-05
2.8666036e-05
3.574582e-05
3.0849502e-05
0.00012879413
8.2623974e-05
4.3285546e-05
3.8920176e-05
2.9567038e-05
0.00012062308
0.00014873315
0.00011056033
8.1123053e-05
8.2752384e-05
4.5498834e-05
1.5553653e-05
2.7052749e-05
3.2547981e-05
4.0744709e-05
3.0074235e-05
2.3485006e-05
2.9537878e-05
3.189419e-05
1.5436543e-05
3.7466007e-05
4.7687785e-05
7.9088491e-05
0.000143961
1.3314037e-05
)


861
(
0.0083664823
0.0096024224
0.013513348
0.010686071
0.00713688
0.0014442098
0.0034504948
0.0046629669
0.0046720493
0.0045462672
0.0037546765
0.0031584968
0.0025811686
0.0025108705
0.0022439548
0.005137901
0.0065078816
0.0058959575
0.0056008937
0.004256127
0.0034317205
0.0026984209
0.0025399248
5.8700291e-05
0.00010903248
0.00022861544
0.00056653
0.0013376726
0.0093843353
0.043316377
0.050445304
0.050429799
0.043218548
0.0093541519
0.0018314106
0.00056770253
0.0002286944
0.00010937295
5.8883677e-05
2.6393915e-05
0.00018580069
0.00089030905
0.00016149199
0.00028945076
0.00055422132
0.0004395554
0.0021991785
0.0078128161
0.017732795
0.02090009
0.016987422
0.0092710622
0.0035472586
0.0013659882
0.00060292603
0.00030179889
9.5800876e-05
0.00020447723
0.00075113023
0.00036321896
0.00019543492
0.00053260239
0.0007841099
0.0030210071
0.0017380574
0.0073364064
0.00021921652
0.0002294889
0.00027023002
0.0047197963
0.005643523
0.0041788644
0.0026363811
0.0013395577
0.00070275079
0.00039000291
0.00019605132
0.00013100005
0.00065348598
0.0031775219
0.0017426765
0.00083661082
0.0015092576
0.0020061591
0.00045414264
0.00036275932
0.00051716396
0.00036471595
0.00086349084
0.0012159538
0.00025936427
0.00065395158
0.0018972597
0.00079180732
0.00060805282
0.00052920795
0.00033904477
0.00035697879
0.00048638225
0.00046480659
0.00039487488
0.0008890631
0.00048038456
0.00019602236
0.00034961929
0.00023416189
0.00031491639
0.00061902048
0.0006387787
0.00041766657
0.00053136134
0.00018859615
0.0003478092
0.00063242798
0.00064440002
0.00021456226
0.00021570802
0.00016136265
0.00057651195
0.00024621189
0.00065592768
0.00015118865
0.00018413493
0.00020452596
0.00026025643
0.00034979835
0.00026378424
0.00015159346
0.00026077797
0.00024268247
0.00016988666
0.0005617301
0.00045291727
0.00039358644
0.00019524985
0.00016706348
9.4283324e-05
0.00027276017
8.5605016e-05
0.00029257066
0.00026426303
9.902056e-05
0.00096904003
0.00015573381
0.00014112503
6.0035912e-05
0.0001339085
9.6168632e-05
0.0011890151
0.00014044451
0.00014084494
0.00010988748
0.00016838303
2.9715384e-05
0.00021260961
9.4211083e-05
0.00050321598
0.00024901998
9.3548286e-05
0.00013784401
0.00011134589
9.5963111e-05
0.00053795651
0.00070821029
9.688423e-05
0.00020665372
8.4674538e-05
6.4334035e-05
7.6835809e-05
0.00013652359
6.9793444e-05
6.8102437e-05
0.00017552753
0.00015064399
5.1641945e-05
0.00010985577
0.00015560248
0.00011591717
7.2830325e-05
0.00010278101
0.00015172708
4.561461e-05
4.6797246e-05
9.5420296e-05
4.5015775e-05
3.2386711e-05
2.9056264e-05
1.9747361e-05
8.7213635e-05
1.9567733e-05
2.7361308e-05
5.5721559e-05
3.0148916e-05
2.5952572e-05
3.2117599e-05
0.00011197623
9.5586344e-05
7.2944466e-05
1.6760001e-05
0.00012167244
0.00010247137
8.1982531e-05
8.6660985e-05
0.00029941156
0.00013820375
0.00010330736
9.0497125e-05
0.00010452218
8.2564833e-05
6.4640914e-05
6.7879479e-05
3.1771755e-05
3.7228168e-05
2.9170245e-05
0.00087556684
0.0034751666
0.022780272
0.082956867
0.082918553
0.022766653
0.0034801731
0.00042981905
0.0016065442
0.00080147645
0.0018414493
0.005290747
0.015891669
0.031726077
0.031700899
0.015872011
0.0052867709
0.0018863973
0.0017715203
0.0037073694
0.0071589654
0.010581232
0.010569689
0.0071480281
0.0037034671
0.00092330861
0.0015387325
0.0013604772
0.002294392
0.0035342744
0.00447275
0.0044653735
0.0035043621
0.002292067
0.0014416568
0.00079113801
0.00097615314
0.0014283512
0.0019252882
0.0022426045
0.0022466763
0.0019127797
0.00085262404
0.0011403481
0.0006924121
0.00092072017
0.001140337
0.0012759083
0.001276972
0.001138091
0.00048414099
0.00060745541
0.00074986022
0.00049581171
0.00061780189
0.00072600384
0.00078961244
0.00078857036
0.00072450833
0.00043988623
0.00051226227
0.00046045837
0.00083475933
4.7095595e-06
0.00045084709
0.0032308641
0.0013460377
0.0042736831
0.0045823002
0.00042190654
0.0028913613
0.00073656456
0.00019703204
0.0011194329
0.00072712104
0.00053134493
0.0003975876
0.00034366773
0.0003139297
0.00019930428
0.00017427814
0.0013853944
0.0013867171
6.7576748e-05
6.9493179e-05
6.0889291e-05
0.00011436431
9.1810998e-05
0.00010642797
6.0416704e-05
6.59657e-05
0.00013991058
0.00013921649
0.00015552026
0.00012723053
0.00013194238
0.00023094765
0.00013511646
0.00013961692
0.00016533818
0.00027710312
0.00023009802
0.00015726135
0.00018879767
0.00015078626
0.00012616079
0.00017374456
0.00022122245
0.00018645168
0.00022262383
0.0003937124
0.00040285078
0.00026291529
0.00021969884
0.00025270824
0.00021772573
0.0006559514
0.00033289262
0.00021641085
1.6495459e-05
0.00046568787
0.00045106467