/*--------------------------------*- C++ -*----------------------------------*\
  =========                 |
  \\      /  F ield         | OpenFOAM: The Open Source CFD Toolbox
   \\    /   O peration     | Website:  https://openfoam.org
    \\  /    A nd           | Version:  8
     \\/     M anipulation  |
\*---------------------------------------------------------------------------*/
/*   Windows 32 and 64 bit porting by blueCAPE: http://www.bluecape.com.pt   *\
|  Based on Windows porting (2.0.x v4) by Symscape: http://www.symscape.com   |
\*---------------------------------------------------------------------------*/
FoamFile
{
    version     2.0;
    format      ascii;
    class       labelListList;
    location    "constant/vegetation";
    object      finalAgglom;
}
// * * * * * * * * * * * * * * * * * * * * * * * * * * * * * * * * * * * * * //


8
(

690
(
0
0
0
0
0
0
0
0
1
1
1
1
1
1
1
1
1
1
1
1
1
1
1
1
2
2
2
2
2
2
2
2
2
2
2
2
2
2
2
2
3
3
3
3
3
3
3
3
3
3
3
3
3
3
3
3
4
4
4
4
4
4
4
4
4
4
4
4
4
0
0
0
0
0
0
0
0
1
1
1
1
1
1
1
1
1
1
1
1
1
1
1
1
2
2
2
2
2
2
2
2
2
2
2
2
2
2
2
2
3
3
3
3
3
3
3
3
3
3
3
3
3
3
3
3
4
4
4
4
4
4
4
4
4
4
4
4
4
0
0
0
0
0
0
0
0
1
1
1
1
1
1
1
1
1
1
1
1
1
1
1
1
2
2
2
2
2
2
2
2
2
2
2
2
2
2
2
2
3
3
3
3
3
3
3
3
3
3
3
3
3
3
3
3
4
4
4
4
4
4
4
4
4
4
4
4
4
0
0
0
0
0
0
0
0
1
1
1
1
1
1
1
1
1
1
1
1
1
1
1
1
2
2
2
2
2
2
2
2
2
2
2
2
2
2
2
2
3
3
3
3
3
3
3
3
3
3
3
3
3
3
3
3
4
4
4
4
4
4
4
4
4
4
4
4
4
0
0
0
0
0
0
0
0
1
1
1
1
1
1
1
1
1
1
1
1
1
1
1
1
2
2
2
2
2
2
2
2
2
2
2
2
2
2
2
2
3
3
3
3
3
3
3
3
3
3
3
3
3
3
3
3
4
4
4
4
4
4
4
4
4
4
4
4
4
0
0
0
0
0
0
0
0
1
1
1
1
1
1
1
1
1
1
1
1
1
1
1
1
2
2
2
2
2
2
2
2
2
2
2
2
2
2
2
2
3
3
3
3
3
3
3
3
3
3
3
3
3
3
3
3
4
4
4
4
4
4
4
4
4
4
4
4
4
0
0
0
0
0
0
0
0
1
1
1
1
1
1
1
1
1
1
1
1
1
1
1
1
2
2
2
2
2
2
2
2
2
2
2
2
2
2
2
2
3
3
3
3
3
3
3
3
3
3
3
3
3
3
3
3
4
4
4
4
4
4
4
4
4
4
4
4
4
0
0
0
0
0
0
0
0
1
1
1
1
1
1
1
1
1
1
1
1
1
1
1
1
2
2
2
2
2
2
2
2
2
2
2
2
2
2
2
2
3
3
3
3
3
3
3
3
3
3
3
3
3
3
3
3
4
4
4
4
4
4
4
4
4
4
4
4
4
0
0
0
0
0
0
0
0
0
0
0
0
0
0
0
0
0
0
0
0
0
0
0
0
0
0
0
0
0
0
0
0
3
3
3
3
3
3
3
3
3
3
3
3
3
3
3
3
3
3
3
3
3
3
3
3
4
4
4
4
4
4
4
4
4
4
4
4
4
0
0
0
0
0
0
0
0
0
0
0
0
0
0
0
0
0
0
0
0
0
0
0
0
0
0
0
0
0
0
0
0
3
3
3
3
3
3
3
3
3
3
3
3
3
3
3
3
3
3
3
3
3
3
3
3
4
4
4
4
4
4
4
4
4
4
4
4
4
)


690
(
0
0
0
0
0
0
0
0
1
1
1
1
1
1
1
1
1
1
1
1
1
1
1
1
2
2
2
2
2
2
2
2
2
2
2
2
2
2
2
2
3
3
3
3
3
3
3
3
3
3
3
3
3
3
3
3
4
4
4
4
4
4
4
4
4
4
4
4
4
0
0
0
0
0
0
0
0
1
1
1
1
1
1
1
1
1
1
1
1
1
1
1
1
2
2
2
2
2
2
2
2
2
2
2
2
2
2
2
2
3
3
3
3
3
3
3
3
3
3
3
3
3
3
3
3
4
4
4
4
4
4
4
4
4
4
4
4
4
0
0
0
0
0
0
0
0
1
1
1
1
1
1
1
1
1
1
1
1
1
1
1
1
2
2
2
2
2
2
2
2
2
2
2
2
2
2
2
2
3
3
3
3
3
3
3
3
3
3
3
3
3
3
3
3
4
4
4
4
4
4
4
4
4
4
4
4
4
0
0
0
0
0
0
0
0
1
1
1
1
1
1
1
1
1
1
1
1
1
1
1
1
2
2
2
2
2
2
2
2
2
2
2
2
2
2
2
2
3
3
3
3
3
3
3
3
3
3
3
3
3
3
3
3
4
4
4
4
4
4
4
4
4
4
4
4
4
0
0
0
0
0
0
0
0
1
1
1
1
1
1
1
1
1
1
1
1
1
1
1
1
2
2
2
2
2
2
2
2
2
2
2
2
2
2
2
2
3
3
3
3
3
3
3
3
3
3
3
3
3
3
3
3
4
4
4
4
4
4
4
4
4
4
4
4
4
0
0
0
0
0
0
0
0
1
1
1
1
1
1
1
1
1
1
1
1
1
1
1
1
2
2
2
2
2
2
2
2
2
2
2
2
2
2
2
2
3
3
3
3
3
3
3
3
3
3
3
3
3
3
3
3
4
4
4
4
4
4
4
4
4
4
4
4
4
0
0
0
0
0
0
0
0
1
1
1
1
1
1
1
1
1
1
1
1
1
1
1
1
2
2
2
2
2
2
2
2
2
2
2
2
2
2
2
2
3
3
3
3
3
3
3
3
3
3
3
3
3
3
3
3
4
4
4
4
4
4
4
4
4
4
4
4
4
0
0
0
0
0
0
0
0
1
1
1
1
1
1
1
1
1
1
1
1
1
1
1
1
2
2
2
2
2
2
2
2
2
2
2
2
2
2
2
2
3
3
3
3
3
3
3
3
3
3
3
3
3
3
3
3
4
4
4
4
4
4
4
4
4
4
4
4
4
0
0
0
0
0
0
0
0
0
0
0
0
0
0
0
0
0
0
0
0
0
0
0
0
0
0
0
0
0
0
0
0
2
2
2
2
2
2
2
2
2
2
2
2
2
2
2
2
3
3
3
3
3
3
3
3
4
4
4
4
4
4
4
4
4
4
4
4
4
0
0
0
0
0
0
0
0
0
0
0
0
0
0
0
0
0
0
0
0
0
0
0
0
0
0
0
0
0
0
0
0
2
2
2
2
2
2
2
2
2
2
2
2
2
2
2
2
3
3
3
3
3
3
3
3
4
4
4
4
4
4
4
4
4
4
4
4
4
)


590
(
0
0
0
0
0
0
0
0
0
0
0
0
0
0
0
0
0
0
0
0
0
0
0
0
0
0
0
0
0
0
0
0
0
0
0
0
0
0
0
0
1
1
1
1
0
0
0
0
0
0
1
1
1
1
0
0
0
0
0
0
1
1
1
1
0
0
0
0
0
0
1
1
1
1
0
0
0
0
0
0
1
1
1
1
1
1
1
1
1
1
1
1
1
1
1
1
1
1
1
1
1
1
1
1
1
1
1
1
1
1
1
1
1
1
1
1
1
1
1
1
2
2
2
2
2
2
2
2
1
1
2
2
2
2
2
2
2
2
1
1
2
2
2
2
2
2
2
2
1
1
2
2
2
2
2
2
2
2
1
1
2
2
2
2
2
2
2
2
3
3
2
2
2
2
2
2
2
2
3
3
2
2
2
2
2
2
2
2
3
3
2
2
2
2
2
2
2
2
3
3
4
4
4
4
3
3
3
3
3
3
4
4
4
4
3
3
3
3
3
3
4
4
4
4
3
3
3
3
3
3
4
4
4
4
3
3
3
3
3
3
4
4
4
4
3
3
3
3
3
3
4
4
4
4
3
3
3
3
3
3
4
4
4
4
3
3
3
3
3
3
4
4
4
4
3
3
3
3
3
3
4
4
4
4
4
4
4
4
3
3
4
4
4
4
4
4
4
4
3
3
4
4
4
4
4
4
4
4
3
3
4
4
4
4
4
4
4
4
3
3
5
5
5
5
5
5
5
5
5
5
5
5
5
5
5
5
5
5
5
5
5
5
5
5
5
5
5
5
5
5
5
5
5
5
5
5
5
5
5
5
6
6
6
6
5
5
5
5
5
5
6
6
6
6
5
5
5
5
5
5
6
6
6
6
5
5
5
5
5
5
6
6
6
6
5
5
5
5
5
5
6
6
6
6
6
6
6
6
6
6
6
6
6
6
6
6
6
6
6
6
6
6
6
6
6
6
6
6
6
6
6
6
6
6
6
6
6
6
6
6
7
7
7
7
7
7
7
7
6
6
7
7
7
7
7
7
7
7
6
6
7
7
7
7
7
7
7
7
6
6
7
7
7
7
7
7
7
7
6
6
7
7
7
7
7
7
7
7
8
8
7
7
7
7
7
7
7
7
8
8
7
7
7
7
7
7
7
7
8
8
7
7
7
7
7
7
7
7
8
8
8
8
8
8
8
8
8
8
8
8
8
8
8
8
8
8
8
8
8
8
8
8
8
8
8
8
8
8
8
8
8
8
8
8
8
8
8
8
8
8
8
8
8
8
8
8
8
8
8
8
8
8
8
8
8
8
8
8
8
8
8
8
8
8
8
8
8
8
8
8
)


590
(
0
0
0
0
0
0
0
0
0
0
0
0
0
0
0
0
0
0
0
0
0
0
0
0
0
0
0
0
0
0
0
0
0
0
0
0
0
0
0
0
1
1
1
1
0
0
0
0
0
0
1
1
1
1
0
0
0
0
0
0
1
1
1
1
0
0
0
0
0
0
1
1
1
1
0
0
0
0
0
0
1
1
1
1
1
1
1
1
1
1
1
1
1
1
1
1
1
1
1
1
1
1
1
1
1
1
1
1
1
1
1
1
1
1
1
1
1
1
1
1
2
2
2
2
2
2
2
2
1
1
2
2
2
2
2
2
2
2
1
1
2
2
2
2
2
2
2
2
1
1
2
2
2
2
2
2
2
2
1
1
2
2
2
2
2
2
2
2
3
3
2
2
2
2
2
2
2
2
3
3
2
2
2
2
2
2
2
2
3
3
2
2
2
2
2
2
2
2
3
3
4
4
4
4
3
3
3
3
3
3
4
4
4
4
3
3
3
3
3
3
4
4
4
4
3
3
3
3
3
3
4
4
4
4
3
3
3
3
3
3
4
4
4
4
3
3
3
3
3
3
4
4
4
4
3
3
3
3
3
3
4
4
4
4
3
3
3
3
3
3
4
4
4
4
3
3
3
3
3
3
4
4
4
4
4
4
4
4
3
3
4
4
4
4
4
4
4
4
3
3
4
4
4
4
4
4
4
4
3
3
4
4
4
4
4
4
4
4
3
3
5
5
5
5
5
5
5
5
5
5
5
5
5
5
5
5
5
5
5
5
5
5
5
5
5
5
5
5
5
5
5
5
5
5
5
5
5
5
5
5
6
6
6
6
5
5
5
5
5
5
6
6
6
6
5
5
5
5
5
5
6
6
6
6
5
5
5
5
5
5
6
6
6
6
5
5
5
5
5
5
6
6
6
6
6
6
6
6
6
6
6
6
6
6
6
6
6
6
6
6
6
6
6
6
6
6
6
6
6
6
6
6
6
6
6
6
6
6
6
6
7
7
7
7
7
7
7
7
6
6
7
7
7
7
7
7
7
7
6
6
7
7
7
7
7
7
7
7
6
6
7
7
7
7
7
7
7
7
6
6
7
7
7
7
7
7
7
7
8
8
7
7
7
7
7
7
7
7
8
8
7
7
7
7
7
7
7
7
8
8
7
7
7
7
7
7
7
7
8
8
8
8
8
8
8
8
8
8
8
8
8
8
8
8
8
8
8
8
8
8
8
8
8
8
8
8
8
8
8
8
8
8
8
8
8
8
8
8
8
8
8
8
8
8
8
8
8
8
8
8
8
8
8
8
8
8
8
8
8
8
8
8
8
8
8
8
8
8
8
8
)


11248
(
0
0
0
0
1
1
1
1
2
2
2
2
3
3
3
3
4
4
4
4
5
5
5
5
6
6
6
6
7
7
7
7
8
8
8
8
9
9
9
9
10
10
10
10
11
11
11
11
12
12
12
12
13
13
13
13
14
14
14
14
15
15
15
15
16
16
16
16
16
0
0
0
0
1
1
1
1
2
2
2
2
3
3
3
3
4
4
4
4
5
5
5
5
6
6
6
6
7
7
7
7
8
8
8
8
9
9
9
9
10
10
10
10
11
11
11
11
12
12
12
12
13
13
13
13
14
14
14
14
15
15
15
15
16
16
16
16
16
0
0
0
0
1
1
1
1
2
2
2
2
3
3
3
3
4
4
4
4
5
5
5
5
6
6
6
6
7
7
7
7
8
8
8
8
9
9
9
9
10
10
10
10
11
11
11
11
12
12
12
12
13
13
13
13
14
14
14
14
15
15
15
15
17
17
16
16
16
0
0
0
0
1
1
1
1
2
2
2
2
3
3
3
3
18
18
4
4
5
5
5
5
6
6
6
6
7
7
7
7
8
8
8
8
9
9
9
9
10
10
10
10
11
11
11
11
12
12
12
12
13
13
13
13
14
14
14
14
15
15
15
15
17
17
16
16
16
19
19
19
19
20
20
20
20
21
21
21
21
21
21
22
22
18
18
18
18
23
23
23
24
24
24
24
25
25
25
25
26
26
26
26
27
27
27
27
28
28
28
28
29
29
29
29
30
30
30
30
31
31
31
31
32
32
32
32
17
17
17
17
17
17
17
17
33
33
19
19
19
19
20
20
20
20
21
21
21
21
21
21
21
22
22
34
35
35
23
23
24
24
24
24
25
25
25
25
26
26
26
26
27
27
27
27
28
28
28
28
29
29
29
29
30
30
30
30
31
31
31
31
32
32
32
32
17
17
17
17
17
17
17
17
33
33
19
19
19
19
20
20
20
20
36
36
36
36
37
37
37
22
38
38
39
40
40
25
25
25
25
25
26
26
26
26
27
27
27
27
28
28
28
28
29
29
29
29
30
30
30
30
31
31
31
31
32
32
32
32
17
17
17
17
33
33
33
33
33
19
19
19
19
20
20
20
20
36
36
36
36
36
37
40
41
41
42
42
42
42
26
26
26
26
27
27
27
27
28
28
28
28
29
29
29
29
30
30
30
30
31
31
31
31
32
32
32
32
43
43
43
43
33
33
33
33
44
44
44
44
45
45
45
45
45
46
46
47
42
42
42
42
48
48
48
48
49
49
49
49
50
50
50
50
51
51
51
51
52
52
52
52
53
53
53
53
54
54
54
54
43
43
43
43
55
55
33
33
56
44
44
44
44
45
45
45
45
45
46
46
57
42
58
58
48
48
48
48
49
49
49
49
50
50
50
50
51
51
51
51
52
52
52
52
53
53
53
53
54
54
54
54
43
43
43
43
55
55
33
56
56
44
44
44
44
59
59
45
59
60
60
61
61
58
58
58
62
63
63
49
49
49
64
64
50
50
50
50
51
51
51
51
52
52
52
52
53
53
53
53
54
54
54
54
43
43
55
55
55
55
56
56
56
44
44
44
44
59
59
59
59
65
65
66
66
61
61
61
61
67
68
69
70
71
71
71
64
64
72
50
50
72
51
51
51
51
52
52
52
52
53
53
53
53
54
54
54
54
43
43
55
55
55
55
56
56
56
73
73
73
73
59
59
59
59
59
65
74
75
75
66
76
76
77
77
67
78
78
79
80
81
82
64
64
83
72
72
72
84
84
85
85
86
86
86
86
86
86
86
86
87
87
87
87
55
55
55
55
88
88
88
56
56
73
73
73
73
59
59
89
89
59
74
74
90
91
91
75
75
92
93
94
95
77
96
97
78
98
98
99
100
101
101
83
102
84
84
85
85
86
86
86
86
86
86
86
87
87
87
87
103
103
103
103
88
88
88
88
56
56
73
73
73
73
89
89
89
89
59
104
104
104
105
105
106
106
107
107
92
108
109
95
77
96
97
110
98
111
112
100
113
101
114
115
115
115
116
116
116
116
87
87
87
87
103
103
103
103
88
88
88
88
56
56
117
73
73
73
73
89
89
89
89
118
104
104
119
119
120
120
120
120
106
106
107
121
121
122
111
123
124
124
114
125
126
115
116
116
116
116
87
87
87
87
103
103
103
103
88
88
88
88
56
117
117
127
127
127
127
89
89
128
89
118
129
130
130
131
131
132
106
106
133
134
135
136
111
123
123
137
114
125
126
116
116
116
116
116
103
103
103
103
138
138
138
138
138
138
88
117
117
117
127
127
127
127
139
89
128
128
140
141
141
130
130
131
131
132
142
143
143
144
145
146
147
123
137
137
148
149
150
150
150
150
150
150
151
151
151
151
138
138
138
138
152
152
117
117
117
127
127
127
127
139
139
139
141
141
153
153
130
154
142
142
155
155
145
146
147
147
156
157
148
149
158
150
150
150
150
150
151
151
151
151
138
138
138
138
152
152
117
117
117
127
127
127
127
159
139
139
160
161
161
162
153
163
163
164
164
165
165
166
166
167
167
168
147
156
169
170
170
158
171
171
171
151
151
151
151
172
172
138
138
152
152
152
117
117
117
173
173
173
159
159
159
174
175
160
160
160
162
176
177
178
178
179
179
166
166
166
166
166
180
168
168
181
156
170
170
182
182
171
151
151
151
151
172
172
172
172
152
152
152
152
117
183
173
173
173
173
159
184
185
186
174
174
175
175
187
188
189
190
191
191
192
192
192
192
180
180
193
181
194
195
196
197
198
182
171
199
199
199
199
172
172
172
172
152
152
200
152
183
183
173
173
173
173
201
184
186
186
174
202
203
188
204
205
206
191
191
191
192
192
180
180
207
208
209
194
210
196
197
198
171
199
199
199
199
172
172
172
172
152
152
200
200
183
183
173
173
173
173
201
201
201
186
202
211
211
212
213
214
191
191
192
192
180
180
207
207
209
215
210
216
216
217
217
199
199
199
199
218
218
218
218
172
172
200
200
200
183
183
219
219
219
219
220
220
220
221
211
222
223
224
214
214
214
192
192
180
180
225
225
226
227
228
229
229
230
230
217
217
199
199
199
199
218
218
218
218
218
218
200
200
200
183
183
219
219
219
219
219
231
220
232
233
234
224
214
214
214
192
192
180
180
235
235
226
227
228
228
229
236
236
237
237
238
238
238
238
238
218
218
218
218
218
218
200
200
200
183
183
239
239
219
219
219
231
231
240
240
241
242
243
244
244
244
192
192
245
180
246
246
247
227
228
248
248
249
250
250
250
250
237
251
251
238
238
238
238
252
252
252
252
252
252
200
200
183
183
239
239
219
219
253
253
253
254
240
255
241
242
243
244
244
244
192
192
245
245
256
256
257
258
259
248
248
260
261
261
262
262
250
250
251
251
238
238
238
238
252
252
252
252
252
252
200
200
183
183
239
239
219
219
253
253
253
254
263
263
264
265
244
244
244
245
245
245
245
266
266
257
258
267
267
268
269
270
261
261
261
271
272
272
273
273
273
273
252
252
252
252
274
274
274
183
274
239
239
275
275
253
253
276
277
278
278
279
265
244
244
244
245
245
245
245
280
280
281
258
282
282
268
283
269
269
270
261
271
272
273
273
273
284
284
284
284
284
284
274
274
274
274
239
239
275
275
253
253
276
276
277
285
285
286
286
287
287
287
245
245
245
245
288
289
281
281
290
290
283
283
291
291
291
270
270
292
273
273
273
284
284
284
284
284
284
274
274
274
274
239
239
275
275
275
253
293
276
277
294
294
295
296
297
287
287
298
298
299
245
288
288
289
300
300
301
302
302
291
291
291
303
304
305
305
305
305
305
284
284
306
306
274
274
274
239
239
275
275
275
275
293
293
293
307
307
308
296
296
298
298
298
298
299
299
288
309
309
300
310
301
302
302
311
311
304
312
305
305
305
305
284
284
306
306
306
274
313
239
239
314
314
275
275
293
293
293
315
316
317
318
318
299
319
320
320
321
322
322
323
302
324
312
312
305
305
305
305
306
306
306
306
306
313
314
314
314
314
275
275
275
325
325
315
316
316
326
326
327
328
328
329
330
330
331
332
333
334
322
322
323
324
324
335
312
312
312
305
305
306
306
306
306
306
313
314
314
314
314
336
336
325
325
325
315
337
338
339
340
340
327
327
328
341
342
343
344
332
345
346
347
324
348
335
349
350
350
350
350
350
350
350
306
313
313
314
314
314
314
336
336
325
325
325
351
351
337
337
339
340
340
340
352
353
353
354
355
355
356
345
357
348
348
358
358
359
359
350
350
350
350
313
313
314
314
336
336
336
336
325
325
325
351
360
361
362
363
364
364
364
365
366
367
368
369
369
357
357
370
371
358
359
359
359
359
350
350
313
313
372
372
336
336
336
336
325
325
325
325
360
373
361
361
374
375
364
364
364
365
365
376
376
368
370
370
371
358
358
358
359
359
359
359
359
313
313
372
372
336
336
377
377
377
377
377
377
360
378
379
380
373
373
381
381
374
374
375
375
375
382
382
365
383
370
384
385
385
386
358
358
387
387
387
387
359
359
313
313
372
372
336
336
377
377
377
377
377
377
360
378
388
389
390
390
380
391
391
381
381
374
374
392
392
375
382
382
393
394
395
395
396
396
385
385
385
397
397
387
387
387
387
359
359
313
313
372
372
398
398
398
398
399
399
377
377
400
400
400
400
401
389
389
390
391
402
403
393
394
395
395
404
405
405
396
396
397
397
397
397
387
387
387
387
406
359
406
313
372
372
398
398
398
398
399
399
377
377
400
400
407
407
401
401
402
403
403
408
395
409
410
404
404
404
396
396
397
397
397
397
387
387
387
387
406
406
406
406
372
372
398
398
398
398
399
399
399
399
411
412
413
414
414
408
415
415
416
416
417
417
417
418
418
397
397
397
397
419
419
419
419
406
406
406
406
406
372
372
398
398
398
398
399
399
399
399
411
412
413
414
420
420
421
415
417
417
417
417
417
417
418
418
397
397
419
419
419
419
419
419
406
406
406
406
422
372
372
423
423
423
423
424
424
399
399
411
412
413
425
420
420
426
421
421
421
417
417
417
417
417
417
418
418
419
419
419
419
419
419
427
427
427
406
422
422
428
428
423
423
423
423
424
424
399
399
411
411
429
429
430
430
426
426
421
421
431
431
431
431
417
417
418
418
418
418
432
432
432
432
427
427
427
427
422
422
422
428
428
423
423
423
423
424
424
424
424
411
411
429
429
430
433
433
434
434
435
435
435
435
435
431
431
431
431
418
418
418
418
432
432
432
432
427
427
427
427
422
422
422
422
428
428
423
423
423
423
424
424
424
424
411
411
436
436
437
433
433
438
438
439
439
439
435
435
435
435
431
431
431
431
418
418
440
440
432
432
432
432
427
427
427
427
422
422
422
441
428
428
442
442
442
442
443
443
424
424
411
411
436
436
444
445
446
447
448
448
438
438
439
439
435
435
435
435
449
449
431
431
440
440
440
440
432
432
450
450
450
450
450
427
422
422
441
441
428
428
442
442
442
442
443
443
424
424
451
411
452
452
444
445
453
446
454
447
447
447
438
438
439
439
439
439
435
435
449
449
431
431
440
440
440
440
432
432
450
450
450
450
450
450
422
441
441
441
428
428
442
442
442
442
443
443
443
443
451
451
452
452
452
445
453
453
455
455
456
456
456
456
456
456
456
439
439
439
439
449
449
449
449
449
449
440
440
440
440
457
457
457
457
450
450
450
441
441
441
441
428
428
442
442
442
442
443
443
443
443
451
451
451
452
452
458
459
459
460
460
455
455
455
455
456
456
456
456
456
456
461
461
439
439
449
449
449
449
449
449
440
440
462
462
457
457
457
457
450
450
463
441
441
441
464
428
428
465
465
465
465
466
466
443
443
451
451
451
451
458
467
468
469
470
470
471
471
472
459
459
460
460
460
455
455
473
473
456
456
474
474
461
461
461
461
475
475
475
475
475
475
475
475
462
462
462
462
457
457
457
457
463
463
441
441
464
464
476
476
465
465
465
465
466
466
443
443
466
451
451
451
458
467
477
477
478
479
479
480
480
468
468
469
469
471
471
471
471
481
481
460
460
482
482
473
473
473
473
474
474
461
461
461
461
475
475
475
475
475
475
475
475
462
462
462
462
457
457
457
457
463
463
441
464
464
464
476
476
465
465
465
465
466
466
466
466
466
451
451
483
483
467
477
479
479
479
479
479
479
484
484
484
484
471
471
471
471
481
481
481
481
482
482
473
473
473
473
474
474
461
461
461
461
461
461
485
485
485
485
485
485
485
485
462
462
463
463
463
463
463
463
464
464
464
464
476
476
465
465
465
465
466
466
466
466
466
451
483
483
483
483
483
483
479
479
479
479
484
484
484
484
484
484
484
484
481
481
481
481
482
482
482
482
473
473
473
473
474
474
474
474
474
474
485
485
485
485
485
485
485
485
462
462
462
462
463
463
463
463
463
464
464
464
464
476
476
476
476
476
476
476
476
466
466
466
466
466
483
483
483
483
486
486
486
486
486
486
486
486
484
484
484
484
481
481
481
481
481
481
482
482
482
482
487
487
473
473
474
474
474
474
487
487
487
487
488
488
488
488
488
488
488
488
463
463
463
463
463
463
464
464
464
464
476
476
476
476
476
476
476
476
466
466
466
466
483
483
483
483
486
486
486
486
486
486
486
486
481
481
481
481
481
481
481
481
481
481
481
481
482
482
482
482
487
487
487
487
487
487
487
487
487
487
488
488
488
488
488
488
488
488
463
463
463
463
463
463
463
464
464
464
464
18
34
34
18
35
34
18
35
35
22
22
22
34
35
35
23
23
38
35
23
38
38
37
37
37
22
37
38
39
39
40
40
40
40
40
40
40
36
47
36
36
47
40
40
41
41
47
46
47
42
57
42
42
57
46
60
57
42
58
57
60
60
66
66
61
66
61
61
61
48
69
68
63
63
69
65
65
65
74
75
75
75
66
66
66
68
67
67
69
78
78
69
79
79
70
489
70
71
81
489
71
82
81
64
82
82
72
72
72
90
74
91
91
75
75
91
76
66
92
76
94
93
77
95
94
78
78
78
79
79
78
80
80
79
80
80
80
82
490
99
82
64
490
64
64
64
83
83
64
72
83
72
72
102
72
72
102
102
90
74
74
90
105
91
105
105
91
91
105
92
92
107
66
108
92
94
109
108
95
95
109
95
95
95
96
96
77
96
96
96
78
97
97
79
110
110
99
99
99
101
113
100
83
83
101
83
102
102
84
84
491
85
491
491
85
85
491
119
104
119
120
105
105
120
105
105
105
108
122
121
109
122
95
95
77
96
97
110
98
492
112
112
111
113
493
112
101
493
493
114
114
114
114
491
115
115
115
115
104
129
129
119
129
119
140
494
130
130
120
120
120
107
134
133
121
134
134
122
136
135
136
492
492
124
114
123
493
114
114
125
125
114
125
115
126
118
128
118
129
140
140
140
494
494
494
130
494
132
132
132
133
495
143
134
495
134
145
136
145
145
146
492
496
125
125
114
125
126
126
150
128
128
139
140
497
141
141
141
141
141
141
130
154
130
131
154
132
498
498
142
142
142
143
143
142
144
144
143
145
145
144
145
146
145
146
496
496
137
148
157
149
149
148
149
150
150
150
150
139
161
160
161
161
161
153
153
153
130
153
154
498
498
142
163
163
155
155
163
144
155
155
145
155
146
146
146
146
146
146
165
165
499
165
499
499
167
499
167
167
157
169
156
148
169
169
149
170
169
149
150
158
139
159
175
174
160
175
160
160
160
160
160
160
161
162
162
153
162
153
163
163
163
177
163
164
164
177
164
178
164
178
500
500
500
500
500
165
165
500
156
156
156
169
501
156
170
170
170
170
158
158
182
159
159
159
184
159
185
185
185
185
174
174
185
175
175
174
160
187
187
187
176
176
177
189
176
178
189
178
190
190
179
179
179
179
179
179
179
179
168
168
180
181
194
181
156
194
170
196
195
170
170
196
170
182
182
182
182
184
184
184
185
186
184
175
203
203
187
176
502
189
189
188
204
190
190
206
190
191
206
206
193
193
193
194
194
193
194
196
503
503
197
197
196
197
182
198
186
186
186
202
202
174
502
502
188
188
188
188
205
212
205
212
212
206
191
213
208
208
207
194
194
209
194
210
210
210
197
197
210
197
217
198
198
217
186
201
186
502
211
211
211
211
504
211
212
222
222
212
213
222
214
214
213
208
225
207
194
215
226
505
215
216
228
505
216
216
228
216
230
230
217
217
217
220
220
220
220
221
221
211
233
221
504
222
233
222
223
222
223
223
223
224
224
224
225
225
225
215
215
226
505
227
227
228
228
228
229
229
229
229
236
230
230
236
230
230
230
231
231
221
506
233
232
232
507
507
232
234
234
241
508
508
234
508
214
508
226
235
235
215
247
235
229
248
228
248
249
249
236
236
249
231
254
231
231
506
506
240
240
240
509
509
240
242
242
241
243
243
242
214
243
243
246
246
246
247
258
247
227
227
227
248
248
248
248
260
249
249
249
249
249
249
250
250
250
237
251
251
237
254
254
253
254
506
510
255
255
240
509
255
242
264
242
264
264
511
511
265
256
257
256
258
258
257
227
258
259
259
259
248
248
259
248
260
269
260
260
260
262
262
262
250
262
251
272
254
254
510
510
263
263
263
263
264
279
264
265
279
511
511
265
266
257
266
258
257
257
258
267
267
282
268
268
267
268
269
269
269
269
261
271
271
271
271
272
272
272
272
277
277
277
277
510
512
278
278
278
285
279
279
265
286
279
244
286
286
280
280
280
281
281
281
281
282
290
290
268
283
290
283
283
283
283
269
269
283
261
270
271
272
272
277
276
276
277
512
512
285
285
285
513
285
279
297
295
286
297
297
287
287
297
289
289
289
281
281
300
310
281
290
290
310
283
283
290
291
291
291
270
292
292
292
276
276
512
514
294
307
294
295
295
307
296
296
295
310
310
310
291
303
311
303
303
292
304
304
304
304
276
293
293
315
514
514
307
307
307
295
307
308
308
298
515
515
299
299
515
516
321
321
301
323
323
311
311
324
304
304
315
514
517
316
518
316
518
519
519
318
318
519
520
318
318
319
331
331
320
332
331
320
333
332
321
521
333
321
334
334
302
323
323
335
335
324
335
522
312
312
522
315
315
517
517
316
316
316
316
519
519
326
326
519
329
329
341
330
330
329
331
344
343
332
356
344
521
347
521
322
322
347
323
324
324
324
335
335
522
349
315
351
351
351
517
523
338
337
337
339
338
338
339
339
339
342
342
353
330
355
342
344
355
355
356
356
355
345
345
356
346
346
345
347
346
324
324
348
348
324
335
348
348
348
349
349
349
351
523
523
337
362
337
363
363
362
352
352
352
353
367
366
354
524
367
354
524
524
355
524
524
356
345
369
345
345
357
357
370
348
370
349
349
358
358
371
360
360
361
523
361
361
362
362
361
363
374
374
366
366
365
368
368
366
369
368
345
357
357
357
357
370
371
371
371
360
360
360
360
380
373
380
373
373
361
373
373
361
361
373
376
376
365
368
357
383
384
384
370
384
386
386
371
386
386
378
389
379
389
379
379
380
380
379
380
380
380
373
373
373
381
381
381
381
381
381
374
374
374
375
375
374
375
375
375
375
392
392
375
375
375
382
382
375
382
383
383
383
395
384
385
385
385
385
385
385
385
378
360
388
400
388
388
389
389
388
389
389
389
390
390
390
380
391
391
391
381
381
381
374
375
392
392
375
382
382
382
382
402
393
393
383
383
394
394
394
395
395
395
395
405
396
396
405
396
396
396
400
400
400
401
401
401
389
389
401
390
390
402
382
402
402
393
403
403
403
394
394
409
395
409
410
404
410
405
405
404
407
407
413
401
401
402
414
414
408
395
395
408
409
416
416
410
416
416
412
412
412
413
414
414
414
414
414
420
414
408
408
416
416
415
416
416
416
413
425
414
425
425
420
420
420
420
408
421
415
421
421
429
429
425
430
430
525
426
426
426
426
426
429
429
429
429
430
430
430
430
430
433
430
525
434
525
434
525
429
437
430
437
437
433
433
433
433
434
434
434
434
434
434
434
436
444
436
444
437
445
446
448
438
438
448
438
438
438
444
436
436
444
445
445
445
445
445
446
446
454
447
454
448
448
447
452
445
445
445
445
446
453
453
453
455
455
454
454
455
452
452
452
452
459
445
453
460
455
453
453
455
455
453
458
458
452
458
469
470
470
470
470
471
471
472
471
472
472
472
459
459
459
459
459
459
467
478
477
478
478
526
479
526
526
480
526
468
468
480
469
468
468
469
469
468
470
469
469
470
470
469
477
477
477
478
478
477
478
478
478
479
479
479
18
34
22
23
23
35
21
22
21
34
34
35
35
35
35
35
24
24
24
24
24
24
22
22
38
39
39
38
39
39
39
37
37
36
40
46
46
46
47
47
47
41
45
60
45
57
57
57
60
60
60
60
60
60
66
61
61
61
62
68
58
63
71
63
65
66
66
66
66
76
66
61
76
76
61
77
77
61
77
77
68
68
68
69
69
69
50
72
72
65
74
74
74
74
74
91
91
91
75
75
75
66
92
75
67
78
77
489
80
80
81
80
80
83
83
83
72
72
72
84
84
84
90
90
105
66
93
92
93
93
93
110
110
97
98
98
98
99
99
98
100
100
100
101
101
113
83
102
84
84
84
105
105
105
105
105
105
92
121
121
108
122
92
108
527
122
109
109
109
95
95
95
77
77
77
96
96
96
97
96
96
110
110
110
98
98
98
112
111
111
112
112
112
114
115
115
118
118
118
119
119
119
119
119
119
120
120
120
120
120
120
107
133
133
135
135
121
527
136
136
111
111
111
112
123
123
125
126
126
115
126
126
118
118
118
129
129
140
140
494
494
494
130
130
130
131
132
131
106
132
132
495
495
495
134
135
135
135
136
136
136
111
111
111
137
137
123
114
137
137
125
126
126
126
128
497
497
497
497
141
141
141
131
131
131
132
144
144
144
146
146
146
111
147
147
137
157
137
149
139
139
139
139
139
139
497
141
161
161
141
153
161
154
154
154
142
142
142
144
155
145
146
146
146
496
496
167
149
158
158
150
158
158
160
160
160
160
160
160
161
162
160
153
153
162
163
164
163
164
165
165
165
166
166
165
166
166
166
167
167
166
167
167
167
147
147
147
170
158
158
158
139
159
159
174
174
174
175
175
174
175
175
175
160
187
175
162
162
177
177
177
178
178
178
190
179
179
179
156
195
195
170
159
159
159
184
184
184
185
184
184
186
186
186
174
174
174
175
203
203
187
189
204
189
190
191
191
191
181
181
193
194
195
503
503
197
198
198
171
171
182
202
202
202
204
188
188
206
206
206
209
209
209
194
210
210
210
197
171
171
198
186
186
186
504
504
211
213
213
213
209
209
209
215
210
505
505
216
217
217
217
217
217
217
220
220
504
233
233
222
222
222
224
224
224
226
226
226
229
236
230
230
230
231
231
231
220
231
231
233
232
232
508
508
508
226
235
226
227
227
227
229
236
236
249
236
236
236
237
237
237
509
240
240
243
243
243
247
247
247
248
248
228
248
249
250
250
250
237
237
237
254
254
509
255
255
241
241
241
243
243
242
257
257
257
248
260
260
260
261
261
260
262
262
261
250
251
251
251
272
272
254
254
253
254
254
254
255
528
263
265
265
265
257
257
257
258
267
267
267
268
269
269
269
269
271
271
263
278
278
265
265
286
281
281
281
281
282
282
282
268
283
283
283
269
269
269
270
270
270
271
271
261
272
272
292
272
277
277
513
285
285
297
297
297
281
300
300
281
290
290
290
283
290
290
283
283
283
283
283
291
291
291
270
270
270
292
292
292
276
276
276
277
276
276
294
294
294
295
295
295
296
296
296
287
296
296
289
309
309
300
300
300
301
301
301
302
302
302
291
276
307
307
307
308
308
308
296
308
308
520
520
308
298
520
520
298
298
520
298
515
298
299
319
299
288
319
319
309
309
309
321
321
321
311
311
304
304
312
312
312
293
325
325
315
315
315
317
317
317
318
318
519
318
318
318
319
319
319
319
319
319
320
320
320
322
322
334
323
323
322
324
324
302
335
327
326
326
328
327
327
328
327
327
329
328
328
329
329
329
330
330
330
333
521
332
333
521
333
334
347
347
322
322
322
324
324
324
335
335
324
335
335
335
522
522
312
349
349
351
339
339
339
327
352
352
341
353
353
330
342
342
343
343
343
347
347
335
335
349
349
349
351
351
351
351
351
351
363
363
337
339
339
363
352
352
340
345
345
345
357
357
348
348
348
349
363
362
362
339
375
375
352
365
365
524
368
368
369
369
369
370
370
357
370
370
370
358
358
371
360
373
361
373
373
374
374
374
365
365
365
368
376
376
357
357
370
383
383
384
386
386
386
358
358
371
360
360
360
378
378
378
379
380
380
379
373
373
373
382
382
382
365
382
382
383
383
383
384
384
370
384
384
384
385
388
389
389
388
390
390
389
373
373
391
381
381
381
381
381
381
374
374
374
374
374
374
392
392
392
392
392
375
382
383
395
396
396
396
396
396
396
400
400
400
400
401
400
390
390
390
402
402
402
393
394
394
394
395
395
395
405
404
404
405
405
405
400
400
400
401
401
401
402
402
403
403
403
403
403
403
409
409
395
409
409
410
410
416
404
404
410
413
408
408
415
415
415
415
415
415
415
416
416
416
412
412
412
413
413
413
414
425
425
420
421
421
421
417
417
417
425
425
420
420
420
420
420
420
426
426
426
421
421
421
429
525
525
525
426
426
525
429
429
429
429
429
429
430
437
437
433
434
434
434
434
437
437
433
433
433
433
433
433
438
438
438
438
438
438
444
448
447
447
448
448
448
452
452
452
444
444
444
445
445
445
453
454
454
455
447
447
454
445
445
453
453
453
455
455
455
458
471
471
472
472
459
459
459
459
459
459
460
460
460
458
458
458
467
467
467
526
526
468
480
468
468
468
469
469
469
470
469
469
471
471
470
471
471
471
477
467
467
477
477
477
477
477
477
479
479
479
480
480
479
34
34
34
34
34
34
34
34
34
22
22
22
22
22
22
22
22
35
35
35
35
35
35
35
35
38
38
38
35
35
35
23
23
38
37
37
37
22
37
22
37
37
37
22
38
39
39
39
39
39
40
39
39
40
40
40
40
40
40
36
36
47
36
36
37
40
40
40
41
41
41
46
46
47
46
46
46
47
47
47
42
42
42
57
57
46
46
46
46
46
61
57
61
60
60
60
66
66
66
66
66
66
65
65
65
65
74
75
75
75
75
75
75
67
67
68
67
67
78
69
68
62
68
68
78
79
69
70
69
69
79
489
70
489
70
70
70
74
74
90
74
74
91
91
91
91
75
75
75
94
76
94
80
80
80
82
82
82
99
82
82
82
490
490
83
83
83
72
72
72
83
72
72
72
72
102
102
102
72
72
72
90
90
90
90
105
105
105
91
105
105
105
105
105
93
93
66
108
93
93
92
93
108
94
94
94
108
94
109
93
93
108
97
97
97
100
99
99
100
100
101
83
83
83
83
83
83
83
102
102
84
84
84
84
84
491
491
491
84
84
491
491
491
491
491
491
90
90
90
104
104
119
120
105
105
120
120
120
122
122
108
122
122
122
92
92
122
108
108
108
122
527
527
95
109
109
95
95
95
77
77
77
96
96
96
110
97
97
110
110
110
492
492
98
100
100
100
100
100
493
114
114
101
114
114
114
114
491
115
115
115
115
115
115
115
129
129
129
119
119
119
129
129
129
119
119
119
119
119
119
140
140
119
119
140
130
130
130
130
130
130
120
120
120
134
107
107
134
134
134
121
121
134
136
135
122
136
136
136
492
492
492
492
492
492
124
124
124
124
124
124
125
125
114
125
125
125
125
126
126
126
118
118
118
118
118
118
118
118
129
140
140
140
140
140
140
140
140
494
494
494
494
130
494
494
132
132
132
495
106
133
143
106
106
134
106
495
495
134
134
134
134
145
145
146
146
146
492
492
492
496
492
492
125
114
114
125
114
114
125
126
126
150
128
128
128
497
497
497
497
497
497
497
497
141
497
497
497
497
141
131
131
131
154
154
154
132
132
131
498
498
498
498
498
498
144
144
144
145
145
145
145
145
145
144
144
144
146
146
146
145
145
145
146
146
146
496
496
496
496
496
496
157
137
148
149
149
125
149
149
149
149
150
150
150
150
150
150
150
139
128
139
139
160
161
160
161
161
497
161
161
161
153
153
153
153
154
153
153
153
154
154
498
498
498
498
498
498
163
163
163
155
155
144
155
155
155
145
155
146
146
146
146
146
146
146
146
146
146
146
165
146
146
146
165
165
165
165
165
165
499
499
499
165
499
499
499
499
499
499
499
499
167
167
167
499
167
167
167
167
167
167
167
167
148
148
148
169
169
148
169
169
169
149
149
149
170
149
149
149