/*--------------------------------*- C++ -*----------------------------------*\
  =========                 |
  \\      /  F ield         | OpenFOAM: The Open Source CFD Toolbox
   \\    /   O peration     | Website:  https://openfoam.org
    \\  /    A nd           | Version:  8
     \\/     M anipulation  |
\*---------------------------------------------------------------------------*/
/*   Windows 32 and 64 bit porting by blueCAPE: http://www.bluecape.com.pt   *\
|  Based on Windows porting (2.0.x v4) by Symscape: http://www.symscape.com   |
\*---------------------------------------------------------------------------*/
FoamFile
{
    version     2.0;
    format      ascii;
    class       labelListList;
    location    "constant/vegetation";
    object      globalFaceFaces;
}
// * * * * * * * * * * * * * * * * * * * * * * * * * * * * * * * * * * * * * //


2023
(

949
(
5
6
7
8
9
10
11
12
13
14
15
16
17
18
19
20
21
22
23
24
25
26
27
28
29
30
31
32
33
34
35
36
37
38
39
40
41
42
43
44
45
46
47
48
49
50
51
52
53
54
55
56
57
58
59
60
61
62
63
64
65
66
67
68
69
70
71
72
73
74
75
76
77
78
79
80
81
82
83
84
87
88
90
91
92
93
95
96
97
98
99
100
101
102
105
106
109
110
111
112
113
114
115
116
117
120
121
122
124
125
126
128
130
131
132
134
135
136
138
140
141
143
144
145
146
147
149
150
151
152
155
156
157
160
161
162
163
164
165
166
167
170
171
174
176
177
180
182
183
184
185
187
190
197
198
200
201
205
208
209
211
217
220
221
228
232
235
236
237
241
242
247
248
253
254
261
263
267
271
274
281
283
284
285
294
302
303
304
308
315
316
317
321
322
324
328
334
337
342
347
348
349
350
353
354
359
360
361
362
364
375
380
392
400
405
426
427
431
437
439
442
448
451
452
456
458
461
470
471
474
479
481
490
493
494
504
510
517
519
521
523
529
532
535
536
537
541
549
556
557
558
559
560
561
562
563
564
565
566
567
568
569
570
571
572
573
574
575
576
577
578
579
580
581
582
583
584
585
586
587
588
589
590
591
592
593
594
595
596
597
598
599
600
601
602
603
604
605
606
607
608
609
610
611
612
613
614
615
616
617
618
619
641
644
646
648
650
657
661
662
664
668
670
671
675
681
684
685
686
687
694
696
698
706
707
714
715
716
726
727
728
730
731
732
733
734
735
736
737
739
740
741
742
743
744
745
746
747
750
751
752
753
754
755
761
762
763
768
769
770
771
772
773
774
781
782
787
788
789
790
791
796
797
798
799
807
808
809
810
817
823
824
831
832
837
838
851
852
858
861
862
863
864
865
866
867
868
869
870
873
874
879
882
883
886
887
888
889
890
891
892
893
894
895
896
897
900
901
903
907
908
909
910
911
912
913
914
915
918
919
920
921
922
923
924
925
926
927
928
929
930
931
933
934
935
936
937
938
939
940
941
942
943
944
946
947
948
949
950
951
954
955
956
957
958
959
960
961
962
963
964
965
966
967
968
969
972
973
974
975
976
977
978
979
980
981
982
983
984
985
986
987
988
989
990
991
992
993
994
996
997
998
999
1002
1003
1004
1005
1006
1007
1008
1009
1010
1032
1035
1037
1039
1040
1042
1044
1045
1046
1057
1060
1066
1067
1082
1083
1093
1094
1095
1096
1097
1098
1099
1100
1101
1102
1103
1104
1105
1106
1107
1108
1109
1110
1111
1112
1113
1114
1115
1116
1117
1118
1119
1120
1121
1122
1123
1124
1125
1126
1127
1128
1130
1131
1132
1133
1134
1135
1136
1137
1138
1139
1140
1141
1142
1143
1144
1145
1146
1148
1149
1152
1153
1154
1155
1156
1157
1159
1160
1161
1162
1163
1164
1165
1173
1175
1178
1184
1185
1186
1187
1188
1189
1190
1191
1192
1193
1194
1203
1204
1205
1206
1209
1210
1211
1212
1213
1214
1215
1216
1217
1218
1219
1220
1221
1222
1223
1225
1226
1227
1228
1229
1230
1231
1232
1233
1234
1235
1236
1237
1238
1239
1240
1241
1242
1243
1244
1245
1246
1247
1248
1249
1250
1251
1252
1253
1254
1255
1256
1257
1258
1259
1260
1261
1262
1263
1264
1265
1266
1267
1268
1269
1270
1271
1272
1273
1274
1275
1276
1277
1278
1279
1280
1281
1282
1283
1284
1285
1286
1287
1288
1289
1290
1291
1292
1293
1294
1295
1296
1297
1298
1299
1300
1301
1302
1303
1304
1305
1306
1307
1308
1309
1310
1311
1312
1313
1314
1315
1316
1317
1318
1319
1320
1321
1322
1323
1324
1325
1329
1343
1344
1346
1347
1351
1352
1353
1355
1357
1358
1366
1367
1368
1376
1382
1384
1399
1401
1402
1403
1421
1427
1430
1432
1433
1434
1435
1436
1437
1438
1439
1459
1477
1480
1484
1486
1487
1490
1491
1493
1497
1498
1499
1501
1504
1505
1508
1519
1521
1523
1529
1533
1536
1537
1538
1540
1545
1546
1549
1553
1558
1561
1580
1584
1586
1589
1590
1591
1592
1593
1594
1595
1596
1597
1598
1599
1604
1608
1610
1612
1613
1615
1616
1617
1624
1625
1628
1638
1640
1645
1669
1671
1678
1679
1681
1682
1683
1684
1685
1687
1689
1691
1692
1694
1696
1698
1700
1701
1705
1706
1707
1708
1710
1711
1718
1719
1720
1721
1722
1725
1726
1734
1738
1741
1745
1746
1760
1762
1764
1768
1769
1770
1783
1788
1790
1791
1792
1809
1816
1817
1822
1824
1825
1829
1830
1831
1833
1835
1838
1843
1844
1846
1847
1848
1850
1852
1854
1857
1865
1871
1873
1875
1876
1880
1881
1882
1884
1887
1888
1890
1892
1893
1894
1896
1899
1902
1908
1909
1910
1913
1933
1935
1937
1942
1945
1950
1951
1954
1957
1958
1959
1960
1962
1963
1966
1969
1973
1983
1984
1990
1991
1993
1994
2006
2007
2013
2019
2020
2021
)


839
(
5
7
8
9
10
11
12
13
14
15
16
17
18
19
20
21
22
23
24
25
26
27
28
29
30
31
32
33
34
35
36
37
38
39
40
41
42
43
44
45
46
47
48
49
50
51
52
53
54
55
56
57
58
59
60
61
62
63
64
65
66
67
68
69
70
71
72
73
74
75
76
77
78
79
80
81
82
83
84
87
90
91
92
96
97
98
99
100
101
106
108
109
110
111
112
113
114
115
116
117
124
125
130
131
138
143
144
145
146
155
156
163
164
166
167
170
171
174
177
180
183
185
187
191
192
197
198
201
205
206
208
217
218
220
222
224
225
232
235
236
237
243
253
254
261
263
267
272
273
274
275
283
284
285
286
294
303
308
309
316
317
326
327
328
337
342
345
347
348
349
359
360
361
362
364
366
372
373
374
375
384
391
400
405
426
427
451
452
456
459
470
471
493
494
504
517
518
519
529
532
535
537
541
543
546
549
556
557
558
559
560
561
562
563
564
565
566
567
568
569
570
571
572
573
574
575
576
577
578
579
580
581
582
583
584
585
586
587
588
589
590
591
592
593
594
595
596
597
598
599
600
601
602
603
604
605
606
607
608
609
610
611
612
613
614
615
616
617
618
619
644
648
657
661
662
664
668
671
675
687
693
694
706
715
726
727
728
730
731
732
733
734
735
736
737
739
740
741
742
743
745
746
747
750
751
752
753
754
755
761
762
763
768
769
770
771
772
773
774
781
782
787
788
789
790
791
796
797
798
799
807
808
809
810
817
823
824
831
832
833
837
838
840
841
842
843
848
849
850
851
852
853
854
855
856
857
859
860
865
866
867
869
870
873
874
875
882
883
886
887
888
889
890
891
900
901
903
907
908
909
910
911
912
913
914
915
918
919
920
921
922
923
924
925
926
927
928
929
930
931
933
934
935
936
937
938
939
940
941
942
943
944
946
947
948
949
950
951
954
955
956
957
958
959
960
961
962
963
964
965
966
967
968
969
972
973
974
975
976
977
978
979
980
981
982
983
984
985
986
987
988
989
990
991
992
993
994
996
997
998
999
1002
1003
1004
1005
1006
1007
1008
1009
1010
1033
1039
1040
1042
1044
1045
1046
1057
1060
1067
1082
1083
1093
1094
1095
1096
1097
1098
1103
1104
1105
1106
1107
1108
1109
1110
1111
1112
1113
1114
1115
1116
1117
1118
1119
1120
1121
1122
1123
1124
1125
1126
1127
1128
1130
1131
1132
1133
1134
1135
1136
1137
1138
1139
1140
1141
1142
1143
1144
1145
1146
1148
1149
1168
1175
1178
1184
1185
1186
1187
1188
1189
1190
1191
1192
1193
1195
1196
1197
1198
1199
1200
1201
1202
1203
1204
1205
1206
1209
1210
1211
1212
1213
1214
1215
1216
1217
1218
1219
1220
1221
1222
1223
1225
1226
1227
1228
1229
1230
1231
1232
1233
1234
1235
1236
1237
1238
1239
1240
1241
1242
1243
1244
1245
1246
1247
1248
1249
1250
1251
1252
1253
1254
1255
1256
1257
1258
1259
1260
1261
1262
1263
1264
1265
1266
1267
1268
1269
1270
1271
1272
1273
1274
1275
1276
1277
1278
1279
1280
1281
1282
1283
1284
1285
1286
1287
1288
1289
1290
1291
1292
1293
1294
1295
1296
1297
1298
1299
1300
1301
1302
1303
1304
1305
1306
1307
1308
1309
1310
1311
1312
1313
1314
1315
1316
1317
1318
1319
1320
1321
1322
1323
1324
1325
1329
1343
1344
1346
1347
1351
1352
1353
1354
1355
1357
1366
1367
1368
1382
1401
1402
1403
1421
1422
1424
1433
1434
1435
1436
1437
1438
1439
1477
1480
1484
1486
1491
1493
1497
1498
1499
1501
1508
1516
1519
1521
1538
1543
1546
1553
1558
1561
1584
1586
1589
1591
1593
1594
1595
1596
1597
1599
1604
1608
1610
1612
1613
1615
1616
1617
1619
1620
1622
1624
1625
1628
1638
1640
1645
1652
1666
1669
1671
1678
1679
1681
1682
1683
1684
1687
1689
1691
1694
1698
1700
1701
1705
1706
1707
1708
1710
1711
1718
1719
1720
1721
1722
1725
1741
1745
1755
1760
1762
1764
1768
1769
1770
1788
1790
1791
1792
1813
1816
1817
1822
1824
1825
1830
1833
1835
1838
1844
1846
1852
1854
1857
1862
1871
1880
1890
1893
1894
1896
1899
1908
1909
1910
1913
1916
1931
1933
1935
1942
1945
1950
1951
1957
1958
1959
1960
1973
1991
1993
2000
2006
2013
2017
2019
2021
)


861
(
5
6
7
8
9
10
11
12
13
14
15
16
17
18
19
20
21
22
23
24
25
26
27
28
29
30
31
32
33
34
35
36
37
38
39
40
41
42
43
44
45
46
47
48
49
50
51
52
53
54
55
56
57
58
59
60
61
62
63
64
65
66
67
68
69
70
71
72
73
76
77
78
79
80
81
82
83
84
85
86
89
90
91
92
95
96
97
98
99
100
101
104
105
106
107
108
109
110
111
112
113
114
115
116
120
121
122
123
124
127
129
130
131
134
135
136
137
141
142
143
144
145
150
153
155
159
160
161
166
170
171
175
178
179
180
181
182
184
190
196
200
205
208
209
211
215
216
217
220
221
222
224
228
231
235
236
242
246
252
253
263
271
272
273
274
280
284
293
294
302
308
314
315
316
317
324
326
327
337
341
342
347
348
352
354
359
360
361
368
371
372
373
374
383
384
400
403
410
420
426
451
456
470
517
518
519
523
526
529
536
539
543
548
549
557
558
559
560
561
562
563
564
565
566
567
568
569
570
571
572
573
574
575
576
577
578
579
580
581
582
583
584
585
586
587
588
589
590
591
592
593
594
595
596
597
598
599
600
601
602
603
604
605
606
607
608
609
610
611
612
613
614
615
616
617
618
619
630
650
661
662
664
671
675
676
684
688
694
695
696
697
698
700
701
704
706
715
726
727
728
730
731
732
734
735
736
737
739
740
741
742
743
745
746
747
750
751
752
753
754
755
761
762
763
768
769
770
771
772
773
774
781
782
786
787
788
789
790
791
795
796
797
798
805
806
807
808
809
810
814
815
816
817
820
822
823
824
829
830
831
832
833
834
835
836
837
838
840
841
842
843
844
845
846
848
849
850
851
852
853
854
855
856
857
858
859
860
861
862
863
864
865
873
874
875
876
878
882
886
887
888
889
890
891
892
893
894
895
896
901
907
908
909
910
911
912
913
914
915
918
919
920
921
922
923
924
925
926
927
928
929
930
931
933
934
935
936
937
938
939
940
941
942
943
946
947
948
949
950
951
954
955
956
957
958
959
960
961
962
963
964
965
966
967
968
969
972
973
974
975
976
977
978
980
981
982
983
984
988
989
990
991
992
993
996
997
998
999
1002
1003
1004
1005
1006
1007
1008
1009
1010
1019
1020
1022
1024
1025
1033
1039
1040
1042
1044
1045
1046
1060
1063
1067
1093
1094
1095
1096
1097
1098
1099
1100
1101
1102
1103
1104
1105
1106
1107
1108
1109
1110
1111
1112
1113
1114
1115
1116
1117
1118
1119
1120
1121
1122
1123
1124
1125
1126
1127
1128
1130
1131
1132
1133
1134
1135
1136
1137
1138
1139
1140
1141
1142
1143
1144
1145
1146
1148
1149
1167
1173
1175
1178
1184
1192
1193
1194
1207
1208
1209
1210
1211
1212
1213
1214
1215
1216
1217
1218
1219
1220
1221
1222
1223
1225
1226
1227
1228
1229
1230
1231
1232
1233
1234
1235
1236
1237
1238
1239
1240
1241
1242
1243
1244
1245
1246
1247
1248
1249
1250
1251
1252
1253
1254
1255
1256
1257
1258
1259
1260
1261
1262
1263
1264
1265
1266
1267
1268
1269
1270
1271
1272
1273
1274
1275
1276
1277
1278
1279
1280
1281
1282
1283
1284
1285
1286
1287
1288
1289
1290
1291
1292
1293
1294
1295
1296
1297
1298
1299
1300
1301
1302
1303
1304
1305
1306
1307
1308
1309
1310
1311
1312
1313
1314
1315
1316
1317
1318
1319
1320
1321
1322
1323
1324
1329
1336
1343
1344
1345
1346
1347
1351
1352
1354
1355
1358
1366
1367
1368
1382
1384
1387
1389
1396
1399
1401
1404
1406
1411
1422
1424
1428
1430
1431
1432
1433
1434
1435
1436
1438
1439
1440
1441
1442
1443
1444
1445
1446
1448
1449
1464
1470
1475
1477
1486
1489
1491
1493
1497
1498
1499
1501
1512
1513
1519
1523
1530
1532
1548
1551
1552
1554
1555
1576
1585
1591
1605
1606
1608
1610
1629
1636
1640
1642
1666
1669
1674
1677
1685
1698
1700
1701
1702
1704
1705
1706
1708
1710
1723
1724
1727
1728
1731
1737
1753
1760
1768
1769
1771
1772
1774
1776
1777
1792
1802
1807
1809
1813
1815
1816
1817
1818
1822
1824
1830
1833
1835
1838
1846
1852
1862
1872
1873
1875
1884
1894
1908
1909
1910
1911
1913
1915
1916
1926
1931
1933
1934
1935
1936
1942
1945
1950
1951
1957
1958
1960
1961
1962
1968
1969
1978
1981
1983
1986
1987
1991
1998
1999
2000
2006
2007
2013
2019
)


846
(
5
6
7
8
9
10
11
12
13
14
15
16
17
18
19
20
21
22
23
24
25
26
27
28
29
30
31
32
33
34
35
36
37
38
39
40
41
42
43
44
45
46
47
48
49
50
51
52
53
54
55
56
57
58
59
60
61
62
63
66
67
68
69
70
71
72
76
77
78
79
80
81
82
83
84
85
86
89
90
91
92
94
95
96
97
98
99
100
103
104
106
107
108
109
110
111
112
113
114
115
116
119
121
122
127
128
129
130
131
133
134
136
140
141
143
144
145
148
152
154
155
158
159
166
169
178
179
180
181
182
183
186
188
189
190
199
200
202
203
204
205
208
210
211
214
215
219
220
221
226
227
228
229
230
231
236
241
242
246
251
252
262
263
266
270
271
272
273
279
280
292
293
300
301
302
312
314
315
320
324
325
326
332
333
334
336
340
341
346
347
359
367
372
377
378
386
387
392
400
402
403
409
415
420
426
434
450
455
469
492
517
518
519
521
522
524
525
536
539
547
548
549
550
557
558
559
560
561
562
563
564
565
566
567
568
569
570
571
572
573
574
575
576
577
578
579
580
581
582
583
584
585
586
587
588
589
590
591
592
593
594
595
596
597
598
599
600
601
602
603
604
605
606
607
608
609
610
611
612
613
614
615
616
617
618
619
638
646
650
659
661
662
664
667
671
672
676
693
704
706
715
717
718
720
724
725
726
727
728
730
731
732
734
735
736
737
739
740
741
742
743
745
746
750
751
752
753
754
755
760
761
762
763
765
766
767
768
769
770
771
772
773
778
779
780
781
782
783
784
785
786
787
788
789
790
791
793
794
795
796
797
798
800
801
802
803
804
805
806
807
808
809
810
811
812
813
814
815
816
817
818
819
820
821
822
823
824
825
826
827
828
829
830
831
832
833
834
835
836
837
838
840
841
842
843
844
845
846
848
849
850
851
852
853
854
858
861
881
892
893
894
895
896
899
907
908
909
910
911
912
913
914
915
918
919
920
921
922
923
924
925
926
927
928
930
933
934
935
936
937
938
939
946
947
954
955
956
957
958
959
960
964
965
971
972
973
974
980
981
982
983
988
989
990
991
992
993
996
997
998
1006
1008
1010
1011
1017
1019
1020
1022
1024
1025
1046
1047
1049
1050
1052
1057
1060
1067
1073
1075
1076
1077
1085
1086
1087
1088
1089
1091
1092
1093
1094
1095
1096
1097
1098
1099
1100
1101
1102
1103
1104
1105
1106
1107
1108
1109
1110
1111
1112
1113
1114
1115
1116
1117
1118
1119
1120
1121
1122
1123
1124
1125
1126
1127
1128
1130
1131
1132
1133
1134
1135
1136
1137
1138
1139
1140
1141
1142
1143
1144
1145
1146
1149
1152
1153
1154
1155
1156
1157
1159
1160
1161
1162
1163
1164
1165
1167
1173
1184
1192
1193
1207
1208
1209
1210
1211
1212
1213
1214
1215
1216
1217
1218
1219
1220
1221
1222
1223
1225
1226
1227
1228
1229
1230
1231
1232
1233
1234
1235
1236
1239
1240
1241
1242
1243
1244
1245
1246
1247
1248
1249
1250
1251
1252
1253
1254
1255
1256
1257
1258
1259
1260
1261
1262
1263
1264
1265
1266
1267
1268
1269
1270
1271
1272
1273
1274
1275
1276
1277
1278
1279
1280
1281
1282
1283
1284
1285
1286
1287
1288
1289
1290
1291
1292
1293
1294
1295
1296
1297
1298
1299
1300
1301
1302
1303
1304
1305
1306
1307
1308
1309
1310
1311
1312
1313
1314
1315
1316
1317
1318
1319
1320
1321
1322
1323
1324
1329
1336
1343
1344
1345
1346
1351
1352
1354
1355
1356
1358
1366
1367
1368
1370
1384
1395
1399
1400
1401
1402
1404
1406
1410
1411
1414
1420
1422
1424
1428
1430
1432
1433
1434
1436
1437
1438
1441
1442
1443
1444
1445
1446
1447
1448
1449
1452
1457
1458
1464
1470
1477
1483
1486
1489
1491
1494
1498
1501
1512
1513
1524
1532
1537
1547
1548
1550
1552
1572
1588
1589
1591
1605
1606
1608
1622
1623
1629
1641
1655
1660
1666
1677
1685
1690
1695
1697
1698
1700
1702
1705
1708
1715
1722
1723
1724
1727
1750
1753
1754
1760
1771
1807
1813
1815
1816
1817
1818
1839
1841
1865
1871
1872
1873
1874
1875
1876
1884
1888
1894
1896
1901
1908
1909
1911
1913
1915
1928
1929
1930
1934
1935
1942
1950
1951
1952
1953
1954
1956
1966
1968
1973
1980
1981
1988
1990
2006
2009
2020
)


670
(
5
6
7
8
9
10
11
12
13
14
15
16
17
18
19
20
21
22
23
24
25
28
29
30
31
32
33
34
35
36
37
38
39
40
41
42
43
44
45
46
47
48
49
50
51
52
53
54
55
56
57
58
59
60
61
62
63
66
67
68
69
70
71
76
77
78
79
80
81
82
83
84
85
86
89
90
91
92
94
95
96
97
98
99
100
103
104
105
106
107
108
109
110
112
113
114
115
116
119
126
127
128
130
131
133
143
144
145
154
166
178
179
180
186
199
200
202
210
211
212
213
214
226
227
228
229
245
246
265
266
279
280
300
301
302
312
320
323
332
333
334
340
341
377
378
386
387
415
425
434
447
450
455
460
469
478
485
490
491
492
517
518
519
550
557
558
559
560
561
562
563
564
565
566
567
568
569
570
571
572
573
574
575
576
577
578
579
580
581
582
583
584
585
586
587
588
589
590
591
592
593
594
595
596
597
598
599
600
601
602
603
604
605
606
607
608
609
610
611
612
613
614
615
616
617
618
619
659
661
664
667
671
676
684
693
706
713
715
717
718
719
720
722
724
725
726
727
728
730
731
732
734
735
736
737
739
740
741
742
743
745
746
749
750
751
752
753
754
755
757
758
759
760
761
762
763
764
765
766
767
768
769
770
771
772
773
775
776
777
778
779
780
781
782
783
784
785
786
787
788
789
790
791
792
793
794
795
796
797
798
800
801
802
803
804
805
807
808
809
810
811
812
813
814
815
816
817
818
819
820
823
824
825
827
828
831
832
834
837
838
841
842
851
852
881
894
896
898
899
907
908
909
910
911
912
913
918
919
920
924
926
933
934
935
936
937
938
939
946
947
948
949
954
956
958
959
960
964
965
966
971
972
974
980
981
982
989
1011
1019
1020
1022
1024
1046
1060
1067
1073
1075
1076
1077
1085
1086
1087
1088
1089
1091
1092
1093
1094
1095
1096
1097
1098
1099
1100
1101
1102
1103
1104
1105
1106
1107
1108
1109
1110
1111
1112
1113
1114
1115
1116
1117
1118
1119
1120
1121
1122
1123
1124
1125
1126
1127
1128
1130
1131
1132
1133
1134
1135
1136
1137
1138
1139
1140
1141
1142
1143
1144
1145
1146
1149
1184
1193
1207
1208
1209
1210
1211
1212
1213
1214
1215
1216
1217
1218
1219
1220
1221
1222
1223
1225
1226
1227
1228
1229
1230
1231
1232
1233
1234
1235
1236
1239
1240
1241
1242
1243
1244
1245
1246
1247
1248
1249
1250
1251
1252
1253
1254
1255
1256
1257
1258
1259
1260
1261
1262
1263
1264
1265
1266
1267
1268
1269
1270
1271
1272
1273
1274
1275
1276
1277
1278
1279
1280
1281
1282
1283
1284
1285
1286
1287
1288
1289
1290
1291
1292
1293
1294
1295
1296
1297
1298
1299
1300
1301
1302
1303
1304
1305
1306
1307
1308
1309
1310
1311
1312
1313
1314
1315
1316
1317
1318
1319
1320
1321
1322
1323
1324
1329
1352
1355
1356
1357
1358
1368
1370
1371
1384
1399
1404
1409
1410
1411
1412
1421
1422
1428
1430
1432
1433
1441
1442
1443
1444
1445
1446
1447
1448
1449
1464
1483
1491
1501
1512
1513
1528
1530
1537
1548
1550
1572
1578
1591
1605
1608
1629
1660
1666
1677
1697
1700
1705
1708
1722
1723
1724
1727
1771
1807
1813
1815
1816
1817
1818
1819
1830
1836
1837
1839
1871
1872
1875
1876
1894
1907
1908
1909
1911
1913
1930
1935
1942
1950
1951
1953
1966
1968
1981
1988
1989
2006
)


749
(
0
1
2
3
4
6
7
9
10
11
12
13
14
15
16
17
18
19
20
21
22
23
24
25
26
27
28
29
30
38
39
43
44
45
47
48
56
61
72
73
77
84
92
101
110
116
128
129
140
141
142
151
152
155
165
175
179
187
195
196
201
208
212
220
221
226
229
235
236
237
247
248
253
254
258
259
263
267
272
273
274
277
281
282
303
304
305
309
315
321
341
342
343
346
353
354
355
356
361
364
365
366
367
368
369
370
379
380
381
383
384
387
388
390
391
395
400
405
406
415
425
426
427
428
434
439
440
441
445
446
447
450
451
452
455
456
457
459
460
463
464
466
467
468
469
470
471
472
475
477
478
479
480
482
483
484
485
486
487
488
489
490
491
492
493
494
495
496
497
498
499
500
501
502
503
504
505
506
507
508
509
510
511
512
513
514
515
516
518
521
524
552
554
557
558
559
560
561
562
563
564
565
566
567
568
569
570
571
572
573
574
575
576
577
578
579
580
581
582
583
584
585
586
587
588
589
590
591
592
593
594
595
596
597
598
599
600
601
602
603
604
605
606
607
608
609
610
611
612
613
614
615
616
617
618
619
643
645
647
651
652
653
654
656
658
663
665
674
680
681
685
686
687
694
702
705
710
726
727
728
729
730
731
732
734
735
736
737
738
739
740
741
742
748
749
750
751
752
753
756
757
758
759
760
761
762
764
765
766
767
768
769
770
771
775
776
777
778
779
780
781
783
784
785
786
787
788
789
790
792
793
794
795
796
797
800
801
802
803
804
805
806
807
808
809
811
812
813
814
815
816
817
818
819
820
821
822
823
825
826
827
828
829
830
831
833
834
835
836
837
840
841
842
843
844
845
846
848
849
850
853
854
855
856
857
858
859
860
861
862
863
864
865
866
867
868
869
870
871
873
877
884
885
892
893
894
895
896
902
904
905
906
907
908
909
910
911
912
913
914
915
916
917
918
919
920
921
922
923
924
925
927
928
929
930
931
932
952
970
995
1000
1001
1016
1027
1031
1034
1037
1039
1040
1042
1044
1045
1056
1069
1070
1074
1080
1081
1090
1093
1094
1095
1096
1097
1098
1099
1100
1101
1102
1103
1104
1105
1106
1107
1108
1109
1110
1111
1112
1113
1114
1115
1116
1117
1118
1119
1120
1121
1122
1123
1124
1125
1126
1127
1128
1129
1130
1131
1132
1133
1134
1135
1136
1137
1138
1139
1140
1141
1142
1143
1144
1145
1146
1147
1151
1152
1153
1154
1155
1156
1157
1158
1159
1160
1161
1162
1163
1164
1165
1180
1183
1184
1209
1210
1211
1212
1213
1214
1215
1216
1217
1218
1219
1220
1221
1222
1223
1224
1225
1226
1227
1228
1229
1230
1231
1232
1233
1234
1235
1236
1237
1238
1239
1240
1241
1242
1243
1244
1245
1246
1247
1248
1249
1250
1251
1252
1253
1254
1255
1256
1257
1258
1259
1260
1261
1262
1263
1264
1265
1266
1267
1268
1269
1270
1271
1272
1273
1274
1275
1276
1277
1278
1279
1280
1281
1282
1283
1284
1285
1286
1287
1288
1289
1290
1291
1292
1293
1294
1295
1296
1297
1298
1299
1300
1301
1302
1303
1304
1305
1306
1307
1308
1309
1310
1311
1312
1313
1314
1315
1316
1317
1318
1319
1320
1321
1322
1323
1324
1327
1332
1337
1363
1364
1365
1373
1374
1375
1378
1380
1382
1384
1401
1402
1405
1424
1431
1438
1450
1463
1469
1472
1479
1480
1482
1485
1486
1487
1488
1496
1497
1499
1528
1580
1590
1601
1602
1603
1607
1611
1621
1626
1627
1630
1659
1665
1667
1703
1707
1709
1710
1711
1712
1716
1757
1758
1772
1773
1775
1780
1796
1798
1812
1820
1821
1826
1828
1829
1832
1838
1844
1845
1846
1886
1889
1893
1895
1899
1902
1903
1906
1912
1938
1939
1957
1958
1959
1962
1963
1970
1984
1991
1992
1993
1994
2001
2008
2010
2018
2021
)


624
(
0
2
3
4
5
10
11
12
13
14
15
16
17
18
19
20
21
22
23
24
25
26
27
28
92
101
128
129
140
141
151
152
155
175
187
193
194
195
196
201
208
209
219
220
221
229
235
236
242
247
248
259
267
272
273
281
282
303
304
305
321
324
341
342
343
348
353
364
379
387
388
400
405
406
415
425
426
427
428
434
439
440
441
445
446
447
450
451
452
455
456
457
459
460
463
464
466
467
468
469
470
471
472
475
476
477
478
479
480
481
482
483
484
485
486
487
488
489
490
491
492
493
494
495
496
497
498
499
500
501
502
503
504
505
506
507
508
509
510
511
512
513
514
515
516
518
521
524
527
541
554
557
558
559
560
561
562
563
564
565
566
567
568
569
570
571
572
573
574
575
576
577
578
579
580
581
582
583
584
585
586
587
588
589
590
591
592
593
594
595
596
597
598
599
600
601
602
603
604
605
606
607
608
609
610
611
612
613
614
615
616
617
618
619
643
645
647
651
652
654
656
658
663
665
674
680
681
685
687
694
726
748
749
756
757
758
759
760
764
765
766
767
775
776
777
778
779
780
783
784
785
786
792
793
794
795
800
801
802
803
804
805
806
811
812
813
814
815
816
818
819
820
821
822
825
826
827
828
829
830
833
834
835
836
840
841
842
843
844
845
846
847
848
849
850
853
854
855
856
857
858
859
860
861
862
863
864
865
866
867
868
869
870
884
885
888
889
890
891
902
904
905
906
907
909
913
915
916
922
932
952
970
1000
1001
1016
1023
1027
1031
1034
1039
1040
1044
1045
1080
1081
1083
1084
1090
1093
1094
1096
1101
1102
1103
1104
1105
1106
1107
1108
1109
1110
1111
1112
1113
1114
1115
1116
1117
1118
1119
1120
1121
1122
1123
1124
1125
1126
1127
1128
1130
1131
1132
1133
1134
1135
1136
1137
1138
1139
1140
1141
1142
1143
1144
1145
1146
1147
1150
1151
1158
1183
1191
1195
1196
1197
1198
1199
1200
1201
1202
1209
1210
1211
1212
1213
1214
1215
1216
1217
1218
1219
1220
1221
1222
1223
1224
1225
1226
1227
1228
1229
1230
1231
1232
1233
1234
1235
1236
1237
1238
1239
1240
1241
1242
1243
1244
1245
1246
1247
1248
1249
1250
1251
1252
1253
1254
1255
1256
1257
1258
1259
1260
1261
1262
1263
1264
1265
1266
1267
1268
1269
1270
1271
1272
1273
1274
1275
1276
1277
1278
1279
1280
1281
1282
1283
1284
1285
1286
1287
1288
1289
1290
1291
1292
1293
1294
1295
1296
1297
1298
1299
1300
1301
1302
1303
1304
1305
1306
1307
1308
1309
1310
1311
1312
1313
1314
1315
1316
1317
1318
1319
1320
1321
1322
1323
1324
1327
1332
1337
1358
1363
1364
1365
1373
1375
1378
1382
1399
1401
1402
1405
1424
1429
1430
1431
1432
1433
1434
1436
1437
1438
1450
1463
1469
1482
1485
1486
1487
1488
1497
1499
1528
1573
1580
1590
1599
1600
1601
1602
1607
1609
1620
1621
1626
1627
1630
1662
1665
1667
1703
1709
1711
1714
1757
1758
1772
1773
1795
1796
1798
1801
1806
1808
1814
1820
1821
1828
1829
1832
1836
1838
1844
1845
1846
1889
1895
1897
1898
1900
1906
1912
1938
1939
1940
1949
1967
1970
1988
1991
1992
2001
2008
2010
2022
)


743
(
0
1
2
3
4
5
10
11
12
13
14
15
16
17
18
19
22
24
25
26
27
35
53
69
70
94
99
108
109
126
127
139
193
194
195
207
234
241
252
271
291
293
307
314
334
336
341
342
344
346
354
355
356
364
378
380
381
386
387
393
394
399
400
410
413
414
415
421
424
425
426
430
431
432
433
434
438
442
443
444
445
446
447
448
449
450
451
452
453
454
455
456
458
459
460
461
462
463
465
466
467
468
469
470
471
473
474
475
476
477
478
479
481
482
483
484
485
487
488
489
490
491
492
493
494
495
496
497
498
499
500
501
502
503
504
505
506
507
508
509
510
511
512
513
514
515
516
517
520
524
527
528
536
546
547
553
554
557
558
559
560
561
562
563
564
565
566
567
568
569
570
571
572
573
574
575
576
577
578
579
580
581
582
583
584
585
586
587
588
589
590
591
592
593
594
595
596
597
598
599
600
601
602
603
604
605
606
607
608
609
610
611
612
613
614
615
616
617
618
619
622
627
628
635
656
658
663
665
666
677
680
681
685
686
687
692
694
695
696
698
703
712
721
723
739
748
749
750
751
752
753
756
757
758
759
760
761
762
763
764
765
766
767
768
769
770
771
772
773
775
776
777
778
779
780
781
782
783
784
785
786
787
788
789
790
792
793
794
795
800
801
802
803
804
805
806
811
812
813
814
815
816
818
819
820
821
822
823
825
826
827
828
829
830
832
833
834
835
836
837
838
840
841
842
843
844
845
846
847
848
849
850
851
852
853
854
855
856
857
858
859
860
861
862
863
864
865
866
867
868
869
870
872
873
874
875
876
880
884
885
886
887
888
889
890
891
892
893
894
895
896
902
904
905
952
970
988
989
996
997
1000
1001
1003
1004
1007
1009
1013
1016
1019
1020
1022
1024
1025
1027
1030
1037
1040
1048
1053
1064
1065
1072
1078
1079
1081
1084
1090
1093
1094
1095
1096
1097
1098
1099
1100
1101
1102
1103
1104
1105
1106
1107
1108
1109
1110
1111
1112
1113
1114
1115
1116
1117
1118
1119
1120
1121
1122
1123
1124
1125
1126
1127
1128
1130
1131
1132
1133
1134
1135
1136
1137
1138
1139
1140
1141
1142
1143
1144
1145
1146
1150
1151
1152
1153
1154
1155
1156
1157
1158
1159
1160
1161
1162
1163
1164
1165
1181
1182
1184
1207
1208
1209
1210
1211
1212
1213
1214
1215
1216
1217
1218
1219
1220
1221
1222
1223
1224
1225
1226
1227
1228
1229
1230
1231
1232
1233
1234
1235
1236
1237
1238
1239
1240
1241
1242
1243
1244
1245
1246
1247
1248
1249
1250
1251
1252
1253
1254
1255
1256
1257
1258
1259
1260
1261
1262
1263
1264
1265
1266
1267
1268
1269
1270
1271
1272
1273
1274
1275
1276
1277
1278
1279
1280
1281
1282
1283
1284
1285
1286
1287
1288
1289
1290
1291
1292
1293
1294
1295
1296
1297
1298
1299
1300
1301
1302
1303
1304
1305
1306
1307
1308
1309
1310
1311
1312
1313
1314
1315
1316
1317
1318
1319
1320
1321
1322
1323
1324
1327
1328
1332
1333
1336
1349
1352
1358
1362
1363
1373
1375
1378
1382
1384
1385
1392
1394
1395
1399
1402
1404
1409
1410
1411
1412
1414
1415
1419
1420
1422
1424
1425
1426
1428
1429
1430
1432
1433
1434
1436
1437
1438
1440
1441
1442
1444
1445
1446
1448
1449
1457
1458
1460
1462
1463
1464
1465
1467
1468
1469
1486
1495
1497
1499
1502
1517
1524
1530
1531
1560
1563
1564
1565
1569
1573
1585
1587
1590
1601
1606
1607
1609
1626
1647
1648
1654
1655
1662
1667
1686
1690
1693
1695
1697
1701
1740
1744
1748
1749
1750
1754
1756
1757
1758
1765
1766
1773
1780
1791
1800
1801
1803
1805
1806
1808
1814
1820
1864
1878
1881
1883
1890
1891
1892
1905
1906
1907
1912
1917
1926
1927
1928
1932
1939
1944
1949
1967
1968
1970
1977
1981
1982
2001
2005
2022
)


569
(
0
1
2
3
4
10
11
12
13
14
15
16
17
18
19
22
24
25
26
27
43
44
61
76
84
91
98
126
139
211
228
302
312
334
341
378
386
387
399
400
412
413
414
415
423
424
425
432
433
434
437
438
443
444
445
446
447
449
450
454
455
456
459
460
462
463
466
467
468
469
470
473
475
476
477
478
479
481
482
483
484
485
487
488
489
490
491
492
493
494
495
496
497
498
499
500
501
502
503
504
505
506
507
508
509
510
511
512
513
514
515
516
517
553
554
557
558
559
560
561
562
563
564
565
566
567
568
569
570
571
572
573
574
575
576
577
578
579
580
581
582
583
584
585
586
587
588
589
590
591
592
593
594
595
596
597
598
599
600
601
602
603
604
605
606
607
608
609
610
611
612
613
614
615
616
617
618
619
628
656
663
665
680
682
692
703
707
712
714
716
721
723
737
748
749
756
757
758
759
760
764
765
766
767
775
776
777
778
779
780
781
783
784
785
786
787
788
789
790
791
792
793
794
795
796
798
800
801
802
803
804
805
806
807
808
809
811
812
813
814
815
816
817
818
819
820
821
822
824
825
826
827
828
829
830
831
833
834
835
836
840
841
842
843
844
845
846
850
851
852
854
855
856
857
859
860
865
866
872
877
879
880
884
885
892
893
894
895
896
897
902
904
905
952
970
972
980
981
989
990
991
996
1000
1001
1011
1016
1019
1048
1053
1064
1065
1072
1078
1079
1081
1084
1085
1086
1087
1088
1089
1091
1092
1093
1094
1095
1096
1097
1098
1099
1100
1101
1103
1104
1105
1106
1107
1108
1109
1111
1112
1113
1114
1115
1117
1118
1119
1120
1121
1122
1123
1124
1125
1126
1127
1128
1130
1131
1132
1133
1134
1136
1137
1138
1139
1140
1142
1143
1144
1145
1146
1150
1151
1158
1181
1182
1184
1207
1208
1209
1210
1211
1212
1213
1214
1215
1216
1217
1218
1219
1220
1221
1222
1223
1224
1225
1226
1227
1228
1229
1230
1231
1232