/*--------------------------------*- C++ -*----------------------------------*\
  =========                 |
  \\      /  F ield         | OpenFOAM: The Open Source CFD Toolbox
   \\    /   O peration     | Website:  https://openfoam.org
    \\  /    A nd           | Version:  8
     \\/     M anipulation  |
\*---------------------------------------------------------------------------*/
/*   Windows 32 and 64 bit porting by blueCAPE: http://www.bluecape.com.pt   *\
|  Based on Windows porting (2.0.x v4) by Symscape: http://www.symscape.com   |
\*---------------------------------------------------------------------------*/
FoamFile
{
    version     2.0;
    format      ascii;
    class       scalarListList;
    location    "constant/vegetation";
    object      kcLAIboundary;
}
// * * * * * * * * * * * * * * * * * * * * * * * * * * * * * * * * * * * * * //


3
(

2023
(
0
0
0
0
0
0
0
0
0
0
0
0
0
0
0
0
0
0
0
0
0
0
0
0
0
0
0
0
0
0
0
0
0
0
0
0
0
0
0
0
0
0
0
0
0
0
0
0
0
0
0
0
0
0
0
0
0
0
0
0
0
0
0
0
0
0
0
0
0
0
0
0
0
0
0
0
0
0
0
0
0
0
0
0
0
0
0.0008196403
0
0
5.0275763e-05
0.039097617
0
0
0
1000
2.6579529
0.70694055
0.67115009
1.2221548
0
0
0
0
1000
0.38909628
0
3.6840332
3.3069806
2.4851985
0.22924086
1.0355462
0
0
0
0
0
0
0
0
1000
2.4103945
2.7579947
3.3554109
0
3.1506996
5.2463511
3.489457
5.1463565
6.2352385
0.18480761
0
0
0
1000
0
0.0010794752
6.7290721
2.8817635
4.0861664
1.3549388
7.4417208
1.2091062
0
0
0
0
0
0
0
2.8256958
10.225191
2.6916754
5.696643
1000
0
0
0
0
0
0
0
0.47688648
2.3047161
9.6373895
9.4996259
5.0246657
0
0
0
0
1.7933342
5.1075535
1000
4.4397779
1000
0.22711388
0.54598346
1000
0
0
0
0
0
1.6227169
2.1969497
1.4805251
0
0
0
0
0
1.6798241
0.7343714
1000
0
1000
0
2.8310242
0.65201466
0
0
0
0
0
0.18121535
4.4722948
0.47339163
0
0
0
0
0
0
0
0
0
3.8440956
6.6159519
0
0
0
1000
0.3152115
7.2686264
2.5258782
1000
0
0
0
0
0
0
7.7454454
1000
1000
0
1000
1000
11.485892
3.1250823
1000
1000
0
1000
0.3545779
0
0
0
0
0
1000
1000
0
1000
1000
0.1319134
3.2757572
0.36704927
0
0
3.2558075
6.7471304
1000
1000
0
0
0
0
2.519047
1000
1000
0
0
0
1000
1000
0.018156634
0
0
0
0
0
0
7.9648992
1000
1000
1000
0.39366679
0
0
0
2.6176089
1000
1000
1000
2.5516778
1000
0
0
0
0
0
0
0
0
0
3.3346964
1000
1000
1000
5.9428582
1000
0
4.152189
1000
0
0
1000
3.8951868
0
0
0
6.1309206
1000
0
1000
0
0
1000
3.2460959
1000
0
0
0
0
5.7028226
1000
1000
1000
1000
0
0
0
0
2.8886352
1000
0
0
0
1000
1.6475767
0.071634647
0
0
1000
0
1000
1000
1000
1000
1000
1000
1000
1000
0
0.97265958
7.4102002
0.20765448
0
1000
1000
1.1213494
0.28280793
2.2607291
1.4512591
0.043193639
0
0
0
0
0.19696535
1000
4.3171712
0.85821625
1.9094765
0
0
0
0
0
3.1988204
3.931511
0
2.1468603
3.0700773
3.5698778
5.4738581
1.0524027
0
0
0
1000
2.3841075
0
4.4476059
0
0
0
1000
0.0022236732
2.32347
0
0
0
0
0
0
0
0
1000
0
1000
0
0
0
0
0
0
0
0
0.12822959
1000
0
0
0
0
0
0
0
0
0
0
1000
0
0
0
0
0
1000
0
0
0
0
0
0
0
0
0
1000
0
0
0
0
0
0
0
0
0
0
0
0
0
0
0
0
0
0
0
0
0
0
0
0
0
0
0
0
0
0
0
0
0
0
0
0
0
0
0
0
0
0
0
0
0
0
0
0
0
0
0
0
0
0
0
0
0
0
1.7007263
2.7637233
0
0.72839401
1.8288635
0
2.4370073
0.0032824045
0
0
1000
1000
4.9582759
0.019579852
9.2731166
5.7981773
8.1046382
0
1000
1000
1000
0
0
0.014226681
1000
0
0
2.2753672
0
6.4938655
1000
0
1000
0
0
4.1183411
0
0
10.39276
1000
0
0
0
0
0
0
0
0
0
0
0
0
0
0
0
0
0
0
0
0
0
0
0
0
0
0
0
0
0
0
0
0
0
0
0
0
0
0
0
0
0
0
0
0
0
0
0
0
0
0
0
0
0
0
0
0
0
0
0
0
0
0
0
7.4378377
7.2410664
5.7676424
6.3313078
1000
1000
1000
6.8898227
6.6076144
5.0646369
5.0863231
5.0092319
1000
1000
1000
1000
7.3631326
7.3868736
5.7508908
6.2750698
6.5401682
1000
1000
0
0
0
0
0
0
0
0
0
0
0
0
0
0
0
0
0
1000
0
0
1000
0
0
1000
1000
0.15290548
1000
1000
0
0.71827104
1000
1000
0
0
0
0
0
0
1000
0
1000
0.021188516
1000
0
0
1000
1000
8.4314588
6.6963065
0
0.037884747
1000
1000
1000
1000
1000
1000
1000
1000
1000
0
0
1000
0
1000
0
0
0
0
0
0
0
0
0
0
0
0
0
0
0
0
0
0
0
0
0
0
0
0
0
0
0
0
0
0
0
0
0
0
0
0
0
0
0
0
0
0
0
0
0
0
0
0
0
0
0
0
0
0
0
0
0
0
0
0
0
0
0
0
0
0
0
1000
0
1000
0
0
0
0
0
0
0
0
0
0
0
0
0
0
1000
0
0
0
0
0
0
1000
1000
1000
1000
0
0
0
0
0
0
0
0
0
0
0
0
0
0
0
0
0
0
0
0
0
0
0
0
0
0
0
0
0
0
0
0
0
0
0
0
1000
0
0
0
0
0
0
0
1000
0
0
0
0
0
0
0
0
0
0
0
0
0
0
0
0
0
0
0
0
1000
0
0
1000
0
1000
1000
1000
1000
1000
0
0
0
0
0
0
0
1000
0
0
0
0
0
0
0
0
0
0
0
0
0
0
0
0
0
0
1000
1000
0
0
0
0
0
0
0
0
0
0
0
0
0
0
0
0
0
0
0
0
0
0
0
0
0
0
0
0
0
0
0
0
0
0
0
0
0
0
0
0
0
0
0
0
0
0
0
0
0
0
0
0
0
0
0
0
0
0
0
0
0
0
0
0
0
0
0
0
0
0
0
0
0
0
0
0
0
0
0
0
1000
0
0
0
0
0
0
0
0
1000
0
0
0
0
1000
0
0
0
0
0
0
0
0
0
0
1000
1000
1000
1000
1000
0
3.0492835
1000
0
1000
1000
1000
1000
1000
1000
1000
1000
1000
0.10251014
0
1000
0
0
1000
0.1452709
0.21909708
0
1000
0
1000
1000
1000
1000
1000
1000
0
0.14331568
0
1000
1000
1000
1000
0
1000
1000
1000
0.2396843
0
1000
0
0
0
0
0
0
0
0
0
0
0
0
0
0
0
0
0
0
0
0
0
0
1000
1000
1000
1000
1000
1000
1000
1000
1000
0.026557295
0.022659166
0
0
0
0
0
0
0
0
0
0
0
0
0
0
0
0
0
0
0
0
0
0
0
0
0
0
0
0
0
0
0
0
0
0
0
0
0
0
0
0
0
0
0
0
0
0
0
0
0
0
0
0
0
0
0
0
0
1000
1000
0
0
0
0
0
0
0
0
0
0
0
0
0
0
0
0.00049068018
1000
0.60274104
1000
1000
1000
1000
1000
0.71616286
1000
0
0
0
0
0
0
0
0
1000
1000
1000
1000
1000
1000
1000
1000
0
0
1000
1000
1000
1000
1000
1000
1000
1000
1000
1000
1000
1000
0
0.017280496
0
0
0
0
0
0
0
0
0
0
0
0
0
0
0
1000
0
0
0
0
0
0
0
0
0
0
0
0
0.0097921434
0.02266006
0
0
0
0
0
0
0
0
0
0
0
0
0
0
0
0
0
0
0
0
0
0
0
0
0
0
0
0
0
0
0
0
0
0
0
0
0
0
0
0
0
0
0
0
0
0
0
0
0
0
0
0
0
0
0
0
0
0
0
0
0
0
0
0
0
0
0
0
0
0
0
0
0
0
0
0
0
0
0
0
0
0
0
0
0
0
1000
2.5293085
1000
1000
0
1000
1000
1000
1000
0
0
0
0
1000
1000
1000
0.19503409
0.33284798
0
0
0
0
3.1652026
0.29219708
0
1000
0.064461874
1000
0.011948242
0.013899958
0
1000
1000
1000
1000
1000
1000
1000
1000
1000
1000
0.040228406
0
0
0.07376185
1000
0.077466987
1000
1000
0
0
0
0
0
0.0097681368
0
1000
0
0
0
1000
1000
0.99959965
1000
1000
1000
1000
1000
1000
1000
1.8807499
4.6107365
4.4278634
1000
0.0023403873
1000
1000
1000
1000
0
0
0
0
0
0
0
0
0
0
0
0
1000
1000
1000
1000
1000
0.42442572
0
1000
0
1000
1000
0
0
1000
0
0
0
0
0
0
0
0.18213106
0
1000
0
0
0
1000
0
0
0
0
0
0
0
0
0
0
1000
1000
1000
1000
0.0010185881
1000
1000
1000
1000
1000
0
1000
1000
1000
1000
1000
1000
0
0
0
1000
0
1000
0
0
1000
1000
0
1000
1000
1000
0
0
0
0
0
0.092400529
0.0029970957
0
1000
0
0
1000
1000
0
1000
0
0
1000
1000
1000
2.6194758
1.6822387
5.2124291
4.3145553
4.9795305
2.0524897
7.4946536
3.6414856
4.9244925
2.9091014
1000
6.6773306
6.2869694
5.4526541
2.5975911
6.9026833
2.741015
4.3232359
3.3005459
2.6902347
5.4618839
5.9876805
6.6277318
1.7359633
2.3229923
1.234549
4.3195548
2.8872287
3.7745939
2.4138383
2.8041591
3.7621071
2.0551424
1.3445006
3.1544598
6.6072875
6.8041768
5.8234106
5.2418083
2.3442339
2.8647959
2.5983667
1.9678591
1.2020763
2.4991842
5.956318
5.1633235
4.2673894
5.7476669
4.4247904
2.597197
1000
2.6214973
2.2023939
7.3539807
1000
6.6201185
7.3583773
1000
1000
4.9325982
2.6896639
7.4370925
8.5418294
4.5853318
7.8929371
8.1960136
4.4290338
5.382107
2.5550631
3.1263093
1.8545152
3.2179975
2.6014295
4.6172287
3.2098716
3.6857601
8.5773181
2.8008602
2.5332787
2.2948752
1.7243206
3.6156195
2.2442758
1.612339
1.4547026
0.88199229
1.284967
1.5903704
2.2053677
1.3962116
2.5076718
3.1654788
1.9839687
2.8629006
1.9104916
0.96245289
2.0171667
2.0126523
1.8924379
2.3052142
3.8988676
2.2858055
0.75009325
1.5592291
0.94651951
1.0088573
1.7045272
1.873075
1.9478938
3.6188829
3.3804773
1.1952149
2.2756763
3.6146269
1.7232824
2.431989
2.0163671
3.8061597
3.2966617
2.2892761
1.6433347
1.1933739
3.7082249
1.0672662
4.6121918
0.83550952
1.8146548
2.9500903
4.6180966
5.4182293
1.1945493
2.2351616
1.2384585
1.5396719
0.95191497
1.1373212
6.7570523
6.0906813
3.6131431
5.1119425
4.8290733
6.5156276
1000
8.8069463
5.2560192
3.3489041
4.8033788
7.2084424
6.3630682
3.3492897
1.3266399
2.4988769
1.591536
2.7640997
0.94871572
4.8115979
2.9306155
2.5029112
2.3473055
3.2937861
1.1156761
2.5212967
5.4497338
3.6293829
5.2961056
5.6558775
8.0462607
7.7020312
6.1677281
2.2226042
5.3854281
1.4877597
0.85994363
1.8463701
2.3539579
1.3349673
2.5641862
2.5287854
2.3407831
1.6623405
1.8866363
1.6509028
2.9026204
1.3598879
1.8950778
1.9733549
1.6301423
1.6365763
3.637542
3.3606708
2.9294965
3.50404
1.9771737
1.9518859
0.69833228
0.97180518
1.6811283
1.3119942
1.4985925
0.95837289
0.61376381
1.244598
1.4851362
1.4425541
0.78240937
1.1408137
0.86921001
3.3527216
1.915771
1.9055663
2.6683363
0.45992703
1.4057452
2.3547711
3.3890662
1.7262423
2.6036846
4.2218805
6.065166
3.9263993
2.8872836
4.6626304
5.8033511
8.1488693
4.8393476
2.7400485
3.2394364
7.478831
3.822492
2.44301
1000
3.1835647
3.2427487
4.5488476
2.8412704
4.3054449
3.2876011
2.8721206
3.2670805
2.9288387
5.415051
1000
3.0969668
2.4433211
4.3114539
3.120878
4.4420003
2.4750029
4.0415071
4.6914629
4.2258523
3.3457722
1.746045
4.019176
1.7851851
2.9820747
2.3333911
8.3883802
3.9540459
9.3446747
3.9789068
3.3811959
2.3201342
1.3879836
2.4336145
3.074717
1.5037349
1.4801333
0.94503225
2.0526774
1.1083944
0.87699308
3.3154878
4.0283119
3.8733497
1.1805374
2.6892333
1.3878639
1000
3.3981079
3.7539208
2.9014376
1.4267904
2.7236005
3.1515852
1.8525161
1.6197012
2.1489789
3.4053148
3.2969104
3.6103804
3.4133317
2.6458572
1.3019153
2.0713511
3.2768733
1.4400814
1.9870638
2.3257058
3.0505736
3.1989514
1.6430578
1.937163
0.83998925
1.5133139
1.2061987
1.3227687
1.7998286
3.1102324
2.0345116
1.4948147
1.7294261
2.0342009
1.6580336
2.3509222
2.4945481
1.2702471
1.5224314
0.65692497
1.7727473
1.8098929
1.6680625
2.7394671
3.3104592
2.0335877
3.0214534
2.8432218
0.86958608
0.66820244
0.49180329
3.7048116
4.003096
1.6696875
2.1471247
3.3097968
4.9520447
5.6959977
4.2850119
2.0428157
2.3628087
3.0844182
3.7442723
0.35888983
3.1446994
0.75265152
1.6323847
3.4322872
4.4992606
2.7164908
3.6435787
4.5116841
3.141062
4.324889
5.4899402
4.2536068
7.1401016
4.8747727
4.5551249
3.3917471
1.4008908
4.8083285
3.5743616
5.0857533
3.2959997
5.1042046
2.007614
2.852854
3.1670888
1.8248537
1.4583904
2.0567694
4.4379745
1.8766992
1.3169694
2.229322
2.1084678
2.9747976
2.6031632
0.8338981
1.3386111
1.8373539
1.4214609
2.2443672
1.5817167
2.2487659
1.5413322
1.3975052
0.47999107
1.4167501
2.07942
1.4963897
1.3073819
1.4590522
1.9408565
1.9055814
2.4691288
2.823134
2.1786977
2.3246788
4.2357945
1.2545684
1.301434
0.91090039
1.2106678
1.0504292
1.240353
1.1707875
1.8491333
1.6303542
1.8797325
3.9149337
3.0338136
2.8459677
1000
1000
4.6994324
1000
1000
2.9147103
3.3132395
2.3924232
3.1093321
2.2526031
2.9752597
2.4276473
1.0598001
4.6722149
1.2308961
1.9099605
1.3858439
0.74297646
1.3522396
2.0559925
1.9486123
1.9391734
2.2046203
1.0400771
2.2438951
2.6602046
1.5530065
1.2323623
2.4714723
2.6439241
3.1312391
1.4711579
1.5722096
2.9064481
1.6204606
0.20403638
2.7599876
3.1384552
1.4896066
1.8015847
2.1609244
3.4252491
3.5997793
3.0195741
2.5872278
2.442034
4.6236313
2.286545
1.0232408
1.9282678
0.9549342
1.439096
1.920799
2.2634884
1.7334297
4.3138973
4.6822198
5.2194537
5.9486134
4.8396254
6.998356
1.9135096
1.7278132
2.086086
1.3015236
1.0082802
2.99634
0.77111689
1.635108
1.0801386
1.2769986
1.8303074
1.7999314
1.7706985
2.7926352
2.7996777
1000
1000
4.6497293
2.6751444
2.1417067
0.96929309
1.9812934
2.681392
4.6657103
2.2159765
2.2606846
1.2521292
1.0051798
3.5005935
4.7714927
5.8919551
0.37645134
0.3099704
3.8113875
6.1229185
7.2101653
5.6156998
3.0566003
0.50180564
0.93120289
3.5612655
0.39832937
1.2361984
)


2023
(
0
0
0
0
0
0
0
0
0
0
0
0
0
0
0
0
0
0
0
0
0
0
0
0
0
0
0
0
0
0
0
0
0
0
0
0
0
0
0
0
0
0
0
0
0
0
0
0
0
0
0
0
0
0
0
0
0
0
0
0
0
0
0
0
0
0
0
0
0
0
0
0
0
0
0
0
0
0
0
0
0
0
0
0
0
0
0
0
0
0
0.08061554
0
0
0
0
2.6172885
1.1242396
0.76375326
1.5441236
0.014373091
0
0
0
1000
0.20008773
0
4.032397
3.7586181
3.4976591
0.55717463
0.92740055
0
0
0
0
0
0
0
0
1000
1.7019344
3.7429122
3.6321959
0
0.86407777
2.6040418
2.0891226
4.64953
5.1906698
0.57777822
0
0
0
1000
0
0
7.2841063
4.9712893
2.924787
0.15645966
3.9088888
2.3250213
0
0
0
0
0
0
0
1.4615604
9.2445573
0.5494433
2.8181022
0
0
0
0
0
0
0
0
0.46972788
0.85521103
5.9469312
6.8268814
1.539337
0
0
0
0
1.0015143
5.6736144
1000
0.91607279
1000
0
0.74081753
0
0
0
0
0
0
1.3804051
0.84094199
1.5249729
0
0
0
0
0
0.71446544
2.1625802
0
0
0
0
2.9722447
0.92981271
0
0
0
0
0
0
1.753487
0.51110816
0
0
0
0
0
0
0
0
0
0.910429
1.7588258
0
0
0
1000
1000
4.9956396
3.5855666
0
0
0
0
0
0
0
6.6861225
1000
1000
0
1000
1000
7.7918201
0.5601356
1000
1000
0
1000
0
0
0
0
0
0
1000
1000
0
0
1000
1000
3.2105485
0
0
0
0.32724946
1.6019956
1000
0
0
0
0
0
0.18163033
1000
1000
0
0
0
0
1000
0
0
0
0
0
0
0
5.1244237
0
1000
1000
0.46699318
0
0
0
0.059540802
1000
1000
0
3.230227
0.09700307
0
0
0
0
0
0
0
0
0
0.016549057
1000
0
1000
8.0381548
1000
0
0.0022476316
1000
0
0
1000
4.0441948
0
0
0
0.8755917
1000
0
1000
0
0
1000
0.45182542
0.0017503531
0
0
0
0
0.99343237
1000
0
1000
0
0
0
0
0
0
7.1332034
0
0
0.015701854
1000
3.0383465
0.2403543
0
0
0
0
0
1000
1000
1000
0.082206162
0.66433867
0.30140617
1000
0
0
4.7279946
0.72031922
0
0.14176556
2.4757504
0.83724361
0.58999862
1.7731453
1.325802
0.28890468
1000
0
0
0
0.27365237
0.25721919
4.4768454
0.89642773
1.6637251
0
0
0
0
0
0.97922638
3.8009633
0
1.4014937
3.0102104
2.8334062
3.4358957
0.19737955
0
0
0
1000
2.0029998
0
2.0868859
0
0
0
0
0
0.2281576
0
0
0
0
0
0
0
0
0
0
1000
0
0
0
0
0
0
0
0
0
1000
0
0
0
0
0
0
0
0
0
0
0
0
0
0
0
0
0
0
0
0
0
0
0
0
0
0
0
0
0
0
0
0
0
0
0
0
0
0
0
0
0
0
0
0
0
0
0
0
0
0
0
0
0
0
0
0
0
0
0
0
0
0
0
0
0
0
0
0
0
0
0
0
0
0
0
0
0
0
0
0
0
0
0
0
0
2.3786409
2.9757091
0
0
3.707064
0
2.9889026
0
0
0
1000
1000
5.4548149
0
7.6386949
8.0191243
3.4426812
0
8.9811594
1000
8.5131414
0
0
0
7.6237764
0
0
0.315067
0
5.3949721
1000
0
2.5458977
0
0
3.2713988
0
0
8.4910797
8.9503293
0
0
0
0
0
0
0
0
0
0
0
0
0
0
0
0
0
0
0
0
0
0
0
0
0
0
0
0
0
0
0
0
0
0
0
0
0
0
0
0
0
0
0
0
0
0
0
0
0
0
0
0
0
0
0
0
0
0
0
0
0
0
0
6.064252
5.8373576
4.5412181
4.9030053
3.9417626
3.3778635
3.3706517
5.4831978
5.2453731
6.0549613
5.8512438
5.9266664
3.8138604
4.1073693
3.069645
4.7160773
5.6621846
5.223909
4.3723889
4.9585391
5.1107836
1000
1000
0
0
0
0
0
0
0
0
0
0
0
0
0
0
0
0
0
0
0
0
1000
0
0
1000
1000
0.01326896
1000
1000
0
0
1000
1000
0
0
0
0
0
0
1000
0
1000
0
0
0
0
1000
1000
5.4665941
7.1678403
0
0.0024348234
1000
1000
1000
1000
1000
1000
1000
1000
1000
0
0
1000
0
1000
0
0
0
0
0
0
0
0
0
0
0
0
0
0
0
0
0
0
0
0
0
0
0
0
0
0
0
0
0
0
0
0
0
0
0
0
0
0
0
0
0
0
0
0
0
0
0
0
0
0
0
0
0
0
0
0
0
0
0
0
0
0
0
0
0
0
0
0
0
0
0
0
0
0
0
0
0
0
0
0
0
0
0
0
0
0
0
0
0
0
0
0
1000
0
0
0
0
0
0
0
0
0
0
0
0
0
0
0
0
0
0
0
0
0
0
0
0
0
0
0
0
0
0
0
0
0
0
0
0
0
0
1000
0
0
0
0
0
0
0
1000
0
0
0
0
0
0
0
0
0
0
0
0
0
0
0
0
0
0
0
0
1000
0
0
1000
0
1000
1000
1000
1000
1000
0
0
0
0
0
0
0
1000
0
0
0
0
0
0
0
0
0
0
0
0
0
0
0
0
0
0
0
1000
0
0
0
0
0
0
0
0
0
0
0
0
0
0
0
0
0
0
0
0
0
0
0
0
0
0
0
0
0
0
0
0
0
0
0
0
0
0
0
0
0
0
0
0
0
0
0
0
0
0
0
0
0
0
0
0
0
0
0
0
0
0
0
0
0
0
0
0
0
0
0
0
0
0
0
0
0
0
0
0
0
0
0
0
0
0
0
0
0
0
0
0
0
0
0
0
0
0
0
0
0
0
0
0
0
1000
1000
1000
1000
1000
0
0.50676663
1000
1000
1000
1000
1000
1000
1000
1000
1000
1000
1000
0
0
1000
0
0
1000
0.1203041
0
0
1000
1000
1000
1000
1000
1000
1000
1000
0
0.0012106625
0
1000
1000
1000
1000
0
1000
1000
1000
0
0
1000
0
0
0
0
0
0
0
0
0
0
0
0
0
0
0
0
0
0
0
0
0
0
1000
1000
1000
1000
1000
1000
1000
1000
1000
0.015451398
0
0
0
0
0
0
0
0
0
0
0
0
0
0
0
0
0
0
0
0
0
0
0
0
0
0
0
0
0
0
0
0
0
0
0
0
0
0
0
0
0
0
0
0
0
0
0
0
0
0
0
0
0
0
0
0
0
0
1000
1000
0
0
0
0
0
0
0
0
0
0
0
0
0
0
1000
0
1000
1.916568
1000
1000
1000
1000
1000
0
1000
1000
0
0
0
0
0
0
0
1000
1000
1000
1000
1000
1000
1000
1000
0
0
1000
1000
1000
1000
1000
1000
1000
1000
1000
1000
1000
1000
0.0099647276
0
0
0
0
0
0
0
0
0
0
0
0
0
0
0
0
1000
0
0
0
0
0
0
0
0
0
0
0
0
0.0025481517
0.028761207
0
0
0
0
0
0
0
0
0
0
0
0
0
0
0
0
0
0
0
0
0
0
0
0
0
0
0
0
0
0
0
0
0
0
0
0
0
0
0
0
0
0
0
0
0
0
0
0
0
0
0
0
0
0
0
0
0
0
0
0
0
0
0
0
0
0
0
0
0
0
0
0
0
0
0
0
0
0
0
0
0
0
0
0
0
0
1000
3.3672379
0
1000
0
1000
1000
1000
1000
1000
0
0
0
1000
0.011056269
1000
0.057470721
1000
0
0
0
0
1.1634374
0.37740724
0
1000
0
1000
0.065741185
0.052585136
0
1000
1000
1000
1000
1000
1000
1000
1000
0
1000
0.035322211
0
0
0.014564417
1000
0.012066365
1000
1000
0
0
0
0
0
0
0
1000
0
0
0
0
1000
1.7312693
1000
1000
1000
1000
1000
1000
1000
1.0411768
2.2584498
1000
1000
0
1000
1000
1000
1000
0
0
0
0
0
0
0
0
0
0
0
0
1000
1000
1000
1000
1000
0.40168057
0
1000
0
1000
1000
0
0
1000
0
0
0
0
0
5.7001082e-05
0
0.068102315
0
1000
0
0
0
1000
0
0
0
0
0
0
0
0
0
0
1000
1000
1000
0.41244388
0.42487178
1000
1000
1000
1000
1000
0
1000
1000
1000
1000
1000
1000
0
0
0
1000
0
1000
0
0
1000
1000
0
1000
1000
0.45926623
0
0
0
0
0
0.071979421
0.016459227
0
1000
0
0
0
0
0
0
0
0
4.5256824
1000
1000
1.054133
1.4601858
3.4999021
2.8248519
2.4672638
2.3804328
6.5022747
2.8907339
2.887919
3.5673206
5.4211017
4.101924
5.8067229
5.4317056
2.1009348
5.3888607
1.9191341
4.147746
3.3464495
2.1096074
4.072901
4.9304685
5.002025
1.4720401
1.4206163
1.7004852
3.1917833
1.9247014
2.1476592
2.4419059
2.8889805
2.4206632
1.3110836
1.000631
2.1795706
3.0652365
5.3809881
5.3445357
3.9473589
2.5433057
0.97490568
1.4895181
2.2028084
0.93889068
2.9517698
3.1534512
4.5067657
4.1353408
2.305562
5.4765161
2.3351526
5.4360774
2.7209469
1.5377123
4.5496058
6.0381585
3.5532645
4.4265843
4.5721107
5.7701083
5.4613447
3.1758796
6.6424718
6.3517061
2.6901501
5.6115695
5.9068735
3.1059631
3.7881652
1.9552182
2.0439686
2.4269997
3.5464613
2.8220092
4.4791697
2.2088616
2.6128614
5.8975055
3.2179027
1.3608296
2.1369445
2.0073173
2.5564213
1.9046767
1.9410828
1.1459554
0.97060972
0.84072434
0.79675375
0.96998527
0.81625141
1.3532693
1.4507147
1.1100182
1.3621675
1.2570274
0.86506094
1.3358254
1.1844013
0.94918096
1.6219731
3.5562579
1.5130285
0.62471653
1.7015574
0.75513955
1.0831575
1.0897905
0.77022094
0.97726085
1.5210324
1.8478624
0.81852447
1.1647179
2.1272257
1.176256
1.7263982
1.2424121
2.9689729
1.3203382
1.5365295
1.1190644
0.73168483
2.1714375
1.2509245
1.8480461
1.5946834
1.8185402
3.8935891
3.8741777
4.3355163
1.4735859
2.2272068
0.94301801
1.1487865
0.6190258
1.3563187
4.6937288
2.6137488
3.9156186
1.9435306
3.8133573
5.2945821
6.0483433
5.6238279
5.2393482
4.4879943
4.3523181
4.0421738
4.2106728
3.3562885
1.7089609
3.1702094
1.6129173
2.7427463
1.1868302
2.8791223
3.289559
2.7611731
2.3648352
3.6403585
1.1700327
3.0535671
2.4689175
1.9055981
4.2455729
4.1621357
5.3885591
4.7950256
3.6677996
2.5577943
5.1535711
1.257081
0.63042835
0.82464628
1.2820962
0.59382475
0.83461822
1.1197448
1.0537764
1.6088303
1.8834471
0.86603714
1.3472648
0.89259546
2.4304415
1.1179859
1.185662
1.8719816
1.7961737
2.5820771
2.3129487
2.5550805
1.3084843
1.8021431
0.78620206
0.80678254
1.1496519
0.98335665
1.3777091
0.68308844
1.0704942
1.0331045
1.5365649
0.96302039
0.289501
0.45046652
1.1225671
1.5240875
1.2452255
1.386119
2.2854378
0.64930624
1.8013582
2.2967128
3.3000499
0.87491418
1.6806469
2.9018465
4.2390684
2.0925166
1.2260774
2.8578316
4.7146163
4.3173248
1.8534451
2.1174782
1.5137088
3.2109998
1.1645735
1.1906193
5.6428107
3.6451594
1.1600559
5.1332585
2.6749421
2.3935494
1.4973819
1.8154767
3.333859
1.2050461
2.8462344
5.7633061
3.7776568
2.1798576
3.6463174
2.375666
3.0260986
1.9720247
2.2509001
3.6789568
2.5339659
2.5261325
1.3949964
4.4106742
1.5446564
2.2674147
2.065799
6.5051529
2.2429012
6.3695289
2.4901272
2.6226055
2.1250113
1.0890321
2.1746038
2.7855545
1.2204074
0.94059853
1.1930038
2.0755418
0.90423725
0.90170757
2.1781135
2.774072
2.4994503
1.4933824
3.0087585
1.4054656
1.7620279
2.1953087
2.124234
1.6584317
1.4411006
2.9001578
2.7458312
1.6213862
1.4000822
2.3666726
3.0777048
2.5670638
1.9745044
1.6634263
1.4089003
1.6114088
1.9815086
1.4896396
1.3784799
2.3661012
2.3515809
2.4454651
2.8782518
1.7304108
1.0360725
1.2096308
2.1194106
0.84768698
1.604529
1.8896312
3.1201343
2.4294606
1.2652699
1.6487576
1.927496
1.9502704
2.2159773
1.6772326
1.1894642
1.4338114
0.64383672
1.9377327
1.6458426
1.0447588
3.1776684
2.5447915
0.84000766
1.3261748
1.023954
1.199434
0.36507702
0.41792128
2.7499828
3.3845392
0.9982795
2.1514724
3.2168925
3.2341996
3.1413977
2.3921787
1.1277584
1.2326573
1.2844333
1.6483167
0.39124338
2.0854262
0.85042765
1.8321786
2.65951
3.8149508
2.0130839
4.3041719
4.1302183
1.5948618
5.0899454
4.6525924
4.0478552
5.2081591
3.2162241
3.3693213
3.1956327
1.2878223
5.9709704
3.8077508
4.9628189
2.9939556
4.544813
1.0433754
1.6541287
1.6064835
2.2475661
1.591703
1.5919591
3.7981169
1.5474774
1.4693452
2.1132442
0.87118554
2.1088651
1.5385429
0.44609065
0.77260581
1.043701
0.80051504
1.1816607
0.87767128
1.7320272
1.1839591
1.416512
0.64236414
1.0353884
1.7253181
1.6446774
1.4358477
1.1083093
1.3255914
1.5316775
1.644709
2.322108
2.2189054
1.146162
2.7866701
1.0524693
0.99766498
0.85540481
0.84909937
0.56049885
1.14512
1.2879454
1.4012527
1.4976741
0.97535432
2.8379574
2.3640557
2.7577166
5.6355515
5.386326
4.0244238
4.495398
3.9155268
4.1231635
2.0492381
2.8896161
2.9776862
1.4127964
2.0168345
1.4662772
1.1942186
2.0803952
1.4176532
2.0568726
1.1893216
0.77933426
0.94641638
1.3841509
1.2083793
1.1600142
1.6808284
1.2280701
2.1164325
2.2411136
0.88672077
0.68343792
1.8235063
1.9712587
3.1154409
1.7805974
1.708249
1.1881361
1.4469554
0.2561968
2.5334616
2.0541764
0.93800653
1.2451706
1.7694008
2.5933549
2.2727995
2.1715006
1.5364018
2.3844694
3.9464323
1.560994
0.67738481
2.2844235
0.5404754
0.95156479
1.8644414
1.9590956
1.3488756
2.5112822
2.8466287
4.146038
4.1138181
3.2965766
5.7063879
1.5309729
1.0304826
1.5638013
0.85224678
0.82029803
1.8092951
0.54016242
1.3812727
0.92759799
0.80255994
1.374948
0.79511584
0.72883173
1.8147658
2.5869589
4.3776113
5.7948698
3.6958039
3.3127109
2.1598576
0.98401386
1.8501809
1.4706489
2.9441869
1.4058626
2.557181
1.4097475
1.8031283
2.2330196
2.9826561
2.3504744
0.58005234
0.4269634
2.6729679
4.9677557
6.5744522
4.651641
1.9185067
0.39232216
1.2300387
1.4670325
0.40245451
1.505708
)


2023
(
0
0
0
0
0
0
0
0
0
0
0
0
0
0
0
0
0
0
0
0
0
0
0
0
0
0
0
0
0
0
0
0
0
0
0
0
0
0
0
0
0
0
0
0
0
0
0
0
0
0
0
0
0
0
0
0
0
0
0
0
0
0
0
0
0
0
0
0
0
0
0
0
0
0
0
0
0
0
0
0
0
0
0
0
0
0
0
0
0
0
0.065430208
0
0
0
0.00033839429
2.8034451
1.8226869
0.85120097
1.596103
0
0
0
0
0
0.35445238
0
3.769326
3.6929143
4.2564955
0.94498271
1.6200138
0
0
0
0
0
0
0
0
0
1.8481049
4.2528648
4.2246341
0
0.064751146
1.0333438
0.44890976
4.2135481
3.6725841
0.75167209
0
0
0
0
0
0
7.6640084
5.0255099
2.0096392
0
2.0907368
3.1931546
0
0
0
0
0
0
0
0.87067127
7.4476126
0.1094063
2.1817031
0
0
0
0
0
0
0
0
0.60087769
0.26914595
3.448291
4.9306901
0.68953851
0
0
0
0
0.50989342
3.6372514
1.5430466
0.085126736
0
0
0.66545074
0.19009221
0
0
0
0
0
1.0433123
0.19611217
1.3501405
0
0
0
0
0
0.28140943
2.9137953
0
0
0
0
4.3106337
2.3158282
0
0
0
0
0
0
2.1237609
2.2175365
0
0
0
0
0
0
0
0
0
0.65311407
2.1438681
1000
0
0
1000
1000
4.7311759
3.2499161
0.4428677
0
0
0
0
0
0
3.9938749
1000
1000
0
1000
1000
6.2631808
0
1000
1000
0
1000
1.6008231
0
0
0
0
0
1000
1000
0
0
1000
1000
0.67164988
0.80547268
0
0
0
1.986956
1000
0
0
0
0
0
0
1000
1000
0
0
0
0
1000
0.0012330562
0
0
0
0
0
0
3.8187762
0
1000
1000
0.26783957
0
0
0
0
1000
1000
0
3.9893878
0.68308244
0
0
0
0
0
0
0
0
0
0
1000
0
1000
7.249836
1000
0
0
1000
0
0
1000
3.3294749
0
0
0
0.32589978
2.589267
1000
1000
0
0
1000
0.035369471
0
0
0
0
0
0.088745175
0
1.0821045e-05
1000
0
0
0
0
0
3.2172619e-05
4.7638671
1000
0
6.0342164e-06
0
2.3271873
0.18510914
0
0
0
0
0
1000
1000
1000
0.084665421
0.74153734
0.51747474
1000
0
0.014274374
3.4833728
0.26513824
0
0.057446432
3.5860711
2.0767746
0.37148363
0.39271383
0.23410487
0.21335581
0
0
0
0
0.23177943
0.26093547
2.7565579
0.78275096
3.5778469
0
0
0
0
1000
0.054573094
3.4652086
0
0.6193299
2.692844
3.0225363
3.2622865
0.0055236163
0
0
0
1000
0.34251831
0
0.69197912
0
0
0
0
1000
0.00067944751
0
0
0
0
0
0
0
0
0
0
0
0
0
0
0
0
0
0
0
0
0
0
0
0
0
0
0
0
0
0
0
0
0
0
0
0
0
0
0
0
0
0
0
0
0
0
0
0
0
0
0
0
0
0
0
0
0
0
0
0
0
0
0
0
0
0
0
0
0
0
0
0
0
0
0
0
0
0
0
0
0
0
0
0
0
0
0
0
0
0
0
0
0
0
0
0
0
0
0
0
0
0
0
0
0
0
2.72143
3.5968154
0
0
3.8394698
0
3.6509448
0
0
0
1000
1000
4.4853976
0
6.3381969
4.3794406
1000
0
4.2591262
1000
4.5124682
0
0
0
5.3917594
1000
0
0.30294518
1000
3.0374059
1000
0
2.9820923
0
1000
2.8336072
0
0
6.8808555
5.6369486
0
0
0
0
0
0
0
0
0
0
0
0
0
0
0
0
0
0
0
0
0
0
0
0
0
0
0
0
0
0
0
0
0
0
0
0
0
0
0
0
0
0
0
0
0
0
0
0
0
0
0
0
0
0
0
0
0
0
0
0
0
0
0
4.9863725
4.8566194
3.434897
3.7533989
1.8974591
1.6331091
1.6285596
4.5777081
4.3722001
2.92
2.8254157
2.82351
1.8508563
1.9968436
1.4959421
3.3069297
4.6866794
4.2605018
3.4378902
3.7571681
3.8779117
1000
1000
0
0
0
0
0
0
0
0
0
0
0
0
0
0
0
0
1000
0
0
0
1000
0
0
1000
1000
0.27652197
1000
0
0
0
1000
1000
0
0
1000
0
0
0
1000
0
1000
0
0
0
0
1000
1000
1000
1000
0
0.0024813199
0
0
0
0
0
0
0
0
0
0
0
1000
0
1000
0
0
0
0
0
0
0
0
0
0
0
0
0
0
0
0
0
0
0
0
0
0
0
0
0
0
0
0
0
0
0
0
0
0
0
0
0
0
0
0
0
0
0
0
0
0
0
0
0
0
0
0
0
0
0
0
0
0
0
0
0
0
0
0
0
0
0
0
0
0
0
0
0
0
0
0
0
0
0
0
0
0
0
0
0
0
0
0
0
0
0
0
0
0
0
0
0
0
0
0
0
0
0
0
0
0
0
0
0
0
0
0
0
0
0
0
0
0
0
0
0
0
0
0
0
0
0
0
0
0
0
1000
0
0
0
0
0
0
0
1000
0
0
0
0
0
0
0
0
0
0
0
0
0
0
0
0
0
0
0
0
1000
0
0
1000
0
0
0
0
0
1000
0
0
0
0
0
0
0
1000
0
0
0
0
0
0
0
0
0
0
0
0
0
0
0
0
0
0
0
1000
0
0
0
0
0
0
0
0
0
0
0
0
0
0
0
0
0
0
0
0
0
0
0
0
0
0
0
0
0
0
0
0
0
0
0
0
0
0
0
0
0
0
0
0
0
0
0
0
0
0
0
0
0
0
0
0
0
0
0
0
0
0
0
0
0
0
0
0
0
0
0
0
0
0
0
0
0
0
0
0
0
0
0
0
0
0
0
0
0
0
0
0
0
0
0
0
0
0
0
0
0
0
0
0
0
1000
1000
1000
1000
1000
0
1000
1000
1000
1000
1000
1000
1000
1000
1000
1000
1000
1000
1000
1000
1000
0
0
1000
0.00023324003
0
0
1000
1000
1000
1000
1000
1000
1000
1000
0
0.0075731319
0
1000
1000
1000
1000
0
1000
1000
1000
0
0
1000
0
0
0
0
0
0
0
0
0
0
0
0
0
0
0
0
0
0
0
0
0
0
1000
1000
0.023014892
1000
1000
1000
1000
1000
1000
0.012976849
0.091803387
0
0
0
0
0
0
0
0
0
0
0
0
0
0
0
0
0
0
0
0
0
0
0
0
0
0
0
0
0
0
0
0
0
0
0
0
0
0
0
0
0
0
0
0
0
0
0
0
0
0
0
0
0
0
0
0
0
0.028429447
0
0
0
0
0
0
0
0
0
0
0
0
0
0
0
1000
0
2.6121314
2.6195495
1000
1.267274
1000
1000
0.50610631
0
1000
1000
0
1000
0
0
0
0
0
0
0
0
0
0
1000
1000
1000
0
0
1000
1000
1000
1000
1000
1000
1000
1000
0
0
0
0
0.028432287
0
0
0
0
0
0
0
0
0
0
0
0
0
0
0
0
1000
0
0
0
0
0
0
0
0
0
0
0
0
0.0042643861
0.057344466
0
0
0
0
0
0
0
0
0
0
0
0
0
0
0
0
0
0
0
0
0
0
0
0
0
0
0
0
0
0
0
0
0
0
0
0
0
0
0
0
0
0
0
0
0
0
0
0
0
0
0
0
0
0
0
0
0
0
0
0
0
0
0
0
0
0
0
0
0
0
0
0
0
0
0
0
0
0
0
0
0
0
0
0
0
0
0
3.0394897
0
1000
0
1000
1000
1000
1000
1000
0
0
0
1000
0
1000
0.081736983
1000
0
0
0
0
0.69547763
1000
0
1000
0.15729893
1000
0.070723762
0.034457557
0
1000
1000
1000
1000
1000
1000
1000
1000
0
1000
1000
0
0
0.063945947
1000
0.076213081
1000
1000
0
0
0
0
0
0.038681807
0
0.8467235
0
0
0
0
3.3743146
2.046757
3.3678158
2.2967099
3.1459868
3.6542741
1.774879
3.9549286
1.6047729
1.2233624
1000
1000
4.0628765
0.0025512413
1000
1000
1000
0.039017458
0
0
1000
1000
1000
1000
1000
1000
1000
1000
1000
1000
1000
1000
1000
1000
1000
0.68045754
0
1000
0
1000
1000
0
0
1000
0
0
0
0
0
0
0
0
0
1000
1000
1000
1000
1000
1000
1000
1000
0
1000
1000
0
0
1000
0
2.7350501
1000
1000
0.37658478
0.39207677
1000
1000
1000
1000
1000
0
1000
1000
1000
1000
1000
1000
0
0
0
1000
1000
1000
0
0
1000
0
0
1000
1000
0.21713042
0
0
0
0
0
0.055750713
0
0
1000
0
0
0
0
0
0
0
0
3.3697112
1000
1000
1.2991401
1.2679385
3.0312621
2.6421381
1.872621
2.6472721
5.3809449
1.6677591
1.8486945
1.7791091
2.881436
3.1607808
4.1976211
4.7087522
2.2023129
4.3242966
1.688307
3.5081862
2.8559803
2.1971147
2.8142051
4.0621426
3.641696
1.5045868
1.5238335
1.4292242
2.7422125
1.5960005
1.6014749
1.7242935
1.6202666
2.0853767
1.1528141
0.83809233
1.9272834
2.8471876
3.5620643
5.0876672
3.8117277
2.2572839
1.3018084
1.2622111
1.8934613
1.2743008
2.743016
1.9963992
2.4957386
2.0694674
2.2784185
2.7875481
1.3103954
2.5319614
1.718313
1.591149
3.3879491
3.7665106
2.6588436
3.333906
3.0189647
4.0463712
3.8545137
3.3172499
5.8527009
5.1343474
2.0987864
4.7719026
4.7391226
2.583223
3.1659733
2.4669768
2.5900205
2.1593142
3.6111184
2.8951876
5.5330787
1.8569221
1.9330315
4.4902411
2.3159078
1.4608849
1.9237417
1.8023828
2.1379614
1.4694022
1.5697532
1.2392888
0.86309966
0.87633389
0.98131388
1.1260713
1.0052258
1.3991204
1.3438375
0.93061272
0.95342128
0.99570113
0.66081175
0.55077863
0.50050101
0.82522905
1.2549441
3.1806017
1.8109534
0.67831534
1.0770992
0.72711011
1.3718971
1.3180724
0.92159252
1.0340942
1.6920218
1.8745993
0.92135612
1.0150409
1.4346555
0.89180855
1.1279893
0.48244898
2.4037488
1.1141288
1.1750582
1.4702482
0.86616844
1.0307454
1.0838964
1.4084502
1.511997
1.8894647
2.4582
2.3883026
2.7005042
1.5932677
1.7721047
0.998982
1.0003837
0.91116731
0.93049314
2.7468303
2.5775301
1.9890917
2.0848384
3.0705142
4.2289221
3.2556443
4.0274539
3.6314035
3.0875439
2.8881163
2.8040694
3.3174532
2.5136239
1.7681971
3.1020728
1.9208672
2.0785567
1.0229141
1.5763612
2.2364155
2.2274496
2.3469244
3.5139612
1.3621643
2.9976267
1.2396257
2.0204216
3.396537
4.0149646
4.610694
3.2831805
2.9725895
3.1738099
3.8688552
0.84267481
0.76094718
1.0147514
1.1141918
0.72819281
1.1227055
1.2754914
1.1533738
1.2184566
1.305462
1.0350839
1.3168288
0.69503928
1.5599016
0.84191737
0.8163257
1.589411
1.4100292
2.2783208
1.9516006
2.0808406
1.3579513
1.1465559
0.54162672
0.8766013
1.0350443
0.9765623
0.98530191
0.74406585
1.1587289
1.0212272
1.6105062
1.4183013
0.39539269
0.59172295
0.86932692
1.3327388
1.0356001
0.92071902
1.7205788
0.72260917
2.1055294
1.7869349
2.4727957
1.0534902
1.0390848
1.8318492
2.5593729
2.2319332
1.5048714
1.7755404
2.6172848
3.0860245
1.9093968
1.2508968
1.3285542
2.8389915
1.4946741
1.1793161
2.8452518
2.0582304
1.421052
2.9784089
1.4414551
2.2368677
1.3484054
1.5283893
1.8019883
1.1359902
2.02518
4.0112978
2.8352666
1.817918
3.3575908
1.6595728
1.6340284
0.90159613
1.8070726
2.4063938
1.5497464
1.7996767
0.80680512
4.0786287
1.3492023
2.328796
2.1419879
4.7582839
1.6566748
5.1738578
2.165111
2.7744808
1.9608044
1.018226
1.8046755
2.1750308
1.933001
1.3695316
1.8744541
2.6846729
1.1361273
1.3570164
1.2351183
2.0176343
2.0387525
0.92248366
1.9073617
0.92743763
1.8182845
2.0594457
2.8775029
1.2717796
2.1976454
3.0519981
3.0849925
1.7804402
1.6069272
2.430302
2.1223004
1.8783506