/*--------------------------------*- C++ -*----------------------------------*\
  =========                 |
  \\      /  F ield         | OpenFOAM: The Open Source CFD Toolbox
   \\    /   O peration     | Website:  https://openfoam.org
    \\  /    A nd           | Version:  8
     \\/     M anipulation  |
\*---------------------------------------------------------------------------*/
/*   Windows 32 and 64 bit porting by blueCAPE: http://www.bluecape.com.pt   *\
|  Based on Windows porting (2.0.x v4) by Symscape: http://www.symscape.com   |
\*---------------------------------------------------------------------------*/
FoamFile
{
    version     2.0;
    format      ascii;
    class       scalarListList;
    location    "constant/vegetation";
    object      solarLoadFineFaces;
}
// * * * * * * * * * * * * * * * * * * * * * * * * * * * * * * * * * * * * * //


3
(

54124
(
214.80245
214.80245
214.80245
214.80245
214.80245
214.80245
214.80245
214.80245
214.80245
214.80245
214.80245
214.80245
214.80245
214.80245
214.80245
214.80245
214.80245
214.80245
214.80245
214.80245
214.80245
214.80245
214.80245
214.80245
214.80245
214.80245
214.80245
214.80245
214.80245
214.80245
214.80245
214.80245
214.80245
214.80245
214.80245
214.80245
214.80245
214.80245
214.80245
214.80245
214.80245
214.80245
214.80245
214.80245
214.80245
214.80245
214.80245
214.80245
214.80245
214.80245
214.80245
214.80245
214.80245
214.80245
214.80245
214.80245
214.80245
214.80245
214.80245
214.80245
214.80245
214.80245
214.80245
214.80245
214.80245
214.80245
214.80245
214.80245
214.80245
214.80245
214.80245
214.80245
214.80245
214.80245
214.80245
214.80245
214.80245
214.80245
214.80245
214.80245
214.80245
214.80245
214.80245
214.80245
214.80245
214.80245
214.80245
214.80245
214.80245
214.80245
214.80245
214.80245
214.80245
214.80245
214.80245
214.80245
214.80245
214.80245
214.80245
214.80245
214.80245
214.80245
214.80245
214.80245
214.80245
214.80245
214.80245
214.80245
214.80245
214.80245
214.80245
214.80245
214.80245
214.80245
214.80245
214.80245
214.80245
214.80245
214.80245
214.80245
214.80245
214.80245
214.80245
214.80245
214.80245
214.80245
214.80245
214.80245
214.80245
214.80245
214.80245
214.80245
214.80245
214.80245
214.80245
214.80245
214.80245
214.80245
214.80245
214.80245
214.80245
214.80245
214.80245
214.80245
214.80245
214.80245
214.80245
214.80245
214.80245
214.80245
214.80245
214.80245
214.80245
214.80245
214.80245
214.80245
214.80245
214.80245
214.80245
214.80245
214.80245
214.80245
214.80245
214.80245
214.80245
214.80245
214.80245
214.80245
214.80245
214.80245
214.80245
214.80245
214.80245
214.80245
214.80245
214.80245
214.80245
214.80245
214.80245
214.80245
214.80245
214.80245
214.80245
214.80245
214.80245
214.80245
214.80245
214.80245
214.80245
214.80245
214.80245
214.80245
214.80245
214.80245
214.80245
214.80245
214.80245
214.80245
214.80245
214.80245
214.80245
214.80245
214.80245
214.80245
214.80245
214.80245
214.80245
214.80245
214.80245
214.80245
214.80245
214.80245
214.80245
214.80245
214.80245
214.80245
214.80245
214.80245
214.80245
214.80245
214.80245
214.80245
214.80245
214.80245
214.80245
214.80245
214.80245
214.80245
214.80245
214.80245
214.80245
214.80245
214.80245
214.80245
214.80245
214.80245
214.80245
214.80245
214.80245
214.80245
214.80245
214.80245
214.80245
214.80245
214.80245
214.80245
214.80245
214.80245
214.80245
214.80245
214.80245
214.80245
214.80245
214.80245
214.80245
214.80245
214.80245
214.80245
214.80245
214.80245
214.80245
214.80245
214.80245
214.80245
214.80245
214.80245
214.80245
214.80245
214.80245
214.80245
214.80245
214.80245
214.80245
214.80245
214.80245
214.80245
214.80245
214.80245
214.80245
214.80245
214.80245
214.80245
214.80245
214.80245
214.80245
214.80245
214.80245
214.80245
214.80245
214.80245
214.80245
214.80245
214.80245
214.80245
214.80245
214.80245
214.80245
214.80245
214.80245
214.80245
214.80245
214.80245
214.80245
214.80245
214.80245
214.80245
214.80245
214.80245
214.80245
214.80245
214.80245
214.80245
214.80245
214.80245
214.80245
214.80245
214.80245
214.80245
214.80245
214.80245
214.80245
214.80245
214.80245
214.80245
214.80245
214.80245
214.80245
214.80245
214.80245
214.80245
214.80245
214.80245
214.80245
214.80245
214.80245
214.80245
214.80245
214.80245
214.80245
214.80245
214.80245
214.80245
214.80245
214.80245
214.80245
214.80245
214.80245
214.80245
214.80245
214.80245
214.80245
214.80245
214.80245
214.80245
214.80245
214.80245
214.80245
214.80245
214.80245
214.80245
214.80245
214.80245
214.80245
214.80245
214.80245
214.80245
214.80245
214.80245
214.80245
214.80245
214.80245
214.80245
214.80245
214.80245
214.80245
214.80245
214.80245
214.80245
214.80245
214.80245
214.80245
214.80245
214.80245
214.80245
214.80245
214.80245
214.80245
214.80245
214.80245
214.80245
214.80245
214.80245
214.80245
214.80245
214.80245
214.80245
214.80245
214.80245
214.80245
214.80245
214.80245
214.80245
214.80245
214.80245
214.80245
214.80245
214.80245
214.80245
214.80245
214.80245
214.80245
214.80245
214.80245
214.80245
214.80245
214.80245
214.80245
214.80245
214.80245
214.80245
214.80245
214.80245
214.80245
214.80245
214.80245
214.80245
214.80245
214.80245
214.80245
214.80245
214.80245
214.80245
214.80245
214.80245
214.80245
214.80245
214.80245
214.80245
214.80245
214.80245
214.80245
214.80245
214.80245
214.80245
214.80245
214.80245
214.80245
214.80245
214.80245
214.80245
214.80245
214.80245
214.80245
214.80245
214.80245
214.80245
214.80245
214.80245
214.80245
214.80245
214.80245
214.80245
214.80245
214.80245
214.80245
214.80245
214.80245
214.80245
214.80245
214.80245
214.80245
214.80245
214.80245
214.80245
214.80245
214.80245
214.80245
214.80245
214.80245
214.80245
214.80245
214.80245
214.80245
214.80245
214.80245
214.80245
214.80245
214.80245
214.80245
214.80245
214.80245
214.80245
214.80245
214.80245
214.80245
214.80245
214.80245
214.80245
214.80245
214.80245
214.80245
214.80245
214.80245
214.80245
214.80245
214.80245
214.80245
214.80245
214.80245
214.80245
214.80245
214.80245
214.80245
214.80245
214.80245
214.80245
214.80245
214.80245
214.80245
214.80245
214.80245
214.80245
214.80245
214.80245
214.80245
214.80245
214.80245
214.80245
214.80245
214.80245
214.80245
214.80245
214.80245
214.80245
214.80245
214.80245
214.80245
214.80245
214.80245
214.80245
214.80245
214.80245
214.80245
214.80245
214.80245
214.80245
214.80245
214.80245
214.80245
214.80245
214.80245
214.80245
214.80245
214.80245
214.80245
214.80245
214.80245
214.80245
214.80245
214.80245
214.80245
214.80245
214.80245
214.80245
214.80245
214.80245
214.80245
214.80245
214.80245
214.80245
214.80245
214.80245
214.80245
214.80245
214.80245
214.80245
214.80245
214.80245
214.80245
214.80245
214.80245
214.80245
214.80245
214.80245
214.80245
214.80245
214.80245
214.80245
214.80245
214.80245
214.80245
214.80245
214.80245
214.80245
214.80245
214.80245
214.80245
214.80245
214.80245
214.80245
214.80245
214.80245
214.80245
214.80245
214.80245
214.80245
214.80245
214.80245
214.80245
214.80245
214.80245
214.80245
214.80245
214.80245
214.80245
214.80245
214.80245
214.80245
214.80245
214.80245
214.80245
214.80245
214.80245
214.80245
214.80245
214.80245
214.80245
214.80245
214.80245
214.80245
214.80245
214.80245
214.80245
214.80245
214.80245
214.80245
214.80245
214.80245
214.80245
214.80245
214.80245
214.80245
214.80245
214.80245
214.80245
214.80245
214.80245
214.80245
214.79165
214.80245
214.80245
214.80245
214.80245
214.80245
214.80245
214.80245
214.80245
214.80245
214.80245
214.80245
214.80245
214.80245
214.80245
214.80245
214.80245
214.80245
214.80245
214.80245
214.80245
214.80245
214.80245
214.80245
214.80245
214.80245
214.80245
214.80245
214.80245
214.80245
214.80245
214.80245
214.80245
214.80245
214.80245
214.80245
214.80245
214.80245
214.80245
214.80245
214.80245
214.80245
214.80245
214.80245
214.80245
214.80245
214.80245
214.80245
214.80245
214.80245
214.80245
0
0
0
214.79165
214.80245
214.80245
214.80245
214.80245
214.80245
214.80245
214.80245
214.80245
214.80245
214.80245
214.80245
214.80245
214.80245
214.80245
214.80245
214.80245
214.80245
214.80245
214.80245
214.80245
214.80245
214.80245
214.80245
214.80245
214.80245
214.80245
214.80245
214.80245
214.80245
214.80245
214.80245
214.80245
214.80245
214.80245
214.80245
214.80245
214.80245
214.80245
214.80245
214.80245
214.80245
214.80245
214.80245
214.80245
214.80245
214.80245
214.80245
214.80245
214.80245
214.80245
214.80245
0
0
0
214.80245
214.80245
214.80245
214.80245
214.80245
214.80245
5.396149
5.396149
214.80245
214.80245
214.80245
214.80245
214.80245
214.80245
214.80245
214.80245
214.80245
214.80245
214.80245
214.80245
214.80245
214.80245
214.80245
214.80245
214.80245
214.80245
214.80245
214.80245
214.80245
214.80245
214.80245
214.80245
214.80245
214.80245
214.80245
214.80245
214.80245
214.80245
214.80245
214.80245
214.80245
214.80245
214.80245
214.80245
214.80245
214.80245
214.80245
214.80245
214.80245
214.80245
214.80245
214.80245
214.80245
0
0
0
0
214.80245
214.80245
214.80245
214.80245
214.80245
214.80245
214.80245
9.1983043
1.1313003
5.396149
6.5552205
6.5552205
1.2502734
214.80245
214.80245
214.80245
0
214.80245
214.80245
214.80245
214.80245
214.80245
214.80245
214.80245
214.80245
214.80245
214.80245
214.80245
214.80245
214.80245
214.80245
214.80245
214.80245
214.80245
214.80245
214.80245
214.80245
214.80245
214.80245
214.80245
214.80245
214.80245
214.80245
214.80245
214.80245
214.80245
214.80245
214.80245
214.80245
214.80245
214.80245
214.80245
214.80245
214.80245
0
0
0
0
214.80245
214.80245
214.80245
19.284936
0.2568268
214.80245
214.80245
214.80245
214.80245
214.80245
214.80245
6.5552205
55.411101
0.1259334
0.42083277
214.80245
214.80245
0
214.80245
214.80245
214.80245
214.80245
214.80245
214.80245
214.80245
214.80245
214.80245
214.80245
214.80245
214.80245
214.80245
214.80245
214.80245
214.80245
214.80245
214.80245
214.80245
214.80245
214.80245
214.80245
214.80245
214.80245
214.80245
214.80245
214.80245
214.80245
214.80245
214.80245
214.80245
214.80245
214.80245
0
0
0
0
0
214.80245
214.80245
214.80245
214.80245
214.80245
12.730783
0.0077856557
214.80245
14.556583
214.80245
214.80245
214.80245
0
214.80245
214.80245
214.80245
214.80245
214.80245
214.80245
214.80245
214.80245
214.80245
214.80245
214.80245
214.80245
214.80245
214.80245
214.80245
214.80245
214.80245
214.80245
214.80245
214.80245
214.80245
214.80245
214.80245
214.80245
214.80245
214.80245
214.80245
214.80245
214.80245
214.80245
214.80245
0
0
214.80245
214.80245
214.80245
214.80245
214.80245
214.80245
214.80245
0.014014388
0.016084372
214.80245
14.556583
214.80245
214.80245
214.80245
0
214.80245
214.80245
214.80245
214.80245
214.80245
214.80245
214.80245
214.80245
214.80245
214.80245
214.80245
214.80245
214.80245
214.80245
214.80245
214.80245
214.80245
214.80245
214.80245
214.80245
214.80245
214.80245
214.80245
214.80245
214.80245
214.80245
214.80245
214.80245
0
0
0
214.80245
214.80245
214.80245
214.80245
214.80245
214.80245
214.80245
214.80245
0
214.80245
214.80245
214.80245
214.80245
1.4120648
214.80245
214.80245
0
214.80245
214.80245
214.80245
214.80245
214.80245
214.80245
214.80245
214.80245
214.80245
214.80245
214.80245
214.80245
214.80245
214.80245
214.80245
214.80245
214.80245
214.80245
214.80245
214.80245
214.80245
214.80245
214.80245
214.80245
214.80245
214.80245
0
0
214.80245
214.80245
214.80245
214.80245
214.80245
214.80245
214.80245
214.80245
214.80245
214.80245
214.80245
214.80245
214.80245
214.80245
214.80245
0
214.80245
214.80245
214.80245
214.80245
214.80245
214.80245
214.80245
214.80245
214.80245
214.80245
214.80245
214.80245
214.80245
214.80245
214.80245
214.80245
214.80245
214.80245
214.80245
214.80245
214.80245
214.80245
214.80245
214.80245
214.80245
214.80245
0
0
214.80245
214.80245
214.80245
214.80245
40.040628
214.80245
103.06371
0
0
0
0
0
0
214.80245
214.80245
214.80245
12.663129
214.80245
111.91102
214.80245
214.80245
214.80245
214.80245
214.80245
214.80245
214.80245
214.80245
214.80245
214.80245
214.80245
214.80245
214.80245
214.80245
214.80245
214.80245
214.80245
214.80245
214.80245
214.80245
214.80245
214.80245
214.80245
214.80245
0
0
0
0
214.80245
214.80245
214.80245
2.4532752
214.80245
133.79745
0
0
214.80245
214.80245
214.80245
214.80245
214.80245
214.80245
214.80245
214.80245
214.80245
23.8735
214.80245
111.91102
214.80245
214.80245
214.80245
214.80245
214.80245
214.80245
214.80245
214.80245
214.80245
214.80245
214.80245
214.80245
214.80245
214.80245
214.80245
214.80245
214.80245
214.80245
214.80245
214.80245
214.80245
214.80245
0
0
0
0
0
0
214.80245
214.80245
214.80245
0.28758605
0
214.80245
214.80245
214.80245
214.80245
214.80245
214.80245
214.80245
214.80245
214.80245
214.80245
214.80245
0.14973209
214.80245
0
214.80245
214.80245
214.80245
214.80245
214.80245
214.80245
214.80245
214.80245
214.80245
214.80245
214.80245
214.80245
214.80245
214.80245
214.80245
214.80245
214.80245
214.80245
214.80245
214.80245
214.80245
214.80245
0
0
0
214.80245
214.80245
214.80245
214.80245
0.092946925
0
0
214.80245
214.80245
214.80245
214.80245
214.80245
214.80245
214.80245
214.80245
214.80245
0
156.72728
0.002206885
214.80245
0
214.80245
214.80245
214.80245
214.80245
214.80245
214.80245
214.80245
214.80245
214.80245
214.80245
214.80245
214.80245
214.80245
214.80245
214.80245
214.80245
214.80245
214.80245
214.80245
214.80245
214.80245
214.80245
214.80245
214.80245
214.80245
214.80245
9.4369841
0
0
214.80245
214.80245
214.80245
214.80245
214.80245
214.80245
214.80245
214.80245
214.80245
0
0
0.002206885
214.80245
150.67736
0
214.80245
214.80245
214.80245
214.80245
214.80245
214.80245
214.80245
214.80245
214.80245
214.80245
214.80245
214.80245
214.80245
214.80245
214.80245
214.80245
214.80245
214.80245
214.80245
214.80245
214.80245
214.80245
214.80245
214.80245
9.4369841
0
0
0
214.80245
214.80245
214.80245
214.80245
214.80245
214.80245
214.80245
214.80245
0
0
188.25649
8.1170075
214.80245
148.80987
0
0
214.80245
214.80245
214.80245
214.80245
214.80245
214.80245
214.80245
214.80245
214.80245
214.80245
214.80245
214.80245
214.80245
214.80245
214.80245
214.80245
214.80245
214.80245
214.80245
214.80245
214.80245
214.80245
214.80245
0
214.80245
0.25223057
0
0
214.80245
214.80245
214.80245
214.80245
214.80245
214.80245
214.80245
214.80245
0
0
188.25649
8.1170075
214.80245
148.80987
0
0
0
214.80245
214.80245
214.80245
214.80245
214.80245
214.80245
214.80245
214.80245
214.80245
214.80245
214.80245
214.80245
214.80245
214.80245
214.80245
214.80245
214.80245
214.80245
214.80245
214.80245
214.80245
214.80245
214.80245
214.80245
214.80245
17.299399
0
0
0
214.80245
214.80245
214.80245
214.80245
214.80245
214.80245
214.80245
214.80245
0
0
188.25649
214.80245
214.80245
210.93755
0
0
0
0
214.80245
214.80245
214.80245
214.80245
214.80245
214.80245
214.80245
214.80245
214.80245
214.80245
214.80245
214.80245
214.80245
214.80245
214.80245
214.80245
214.80245
214.80245
214.80245
214.80245
214.80245
214.80245
214.80245
214.80245
214.80245
0
214.80245
0.074632407
0
0
0
214.80245
214.80245
214.80245
214.80245
214.80245
214.80245
214.80245
214.80245
0
0
0
214.80245
214.80245
210.93755
0
0
0
0
0
214.80245
214.80245
214.80245
214.80245
214.80245
214.80245
214.80245
214.80245
214.80245
214.80245
214.80245
214.80245
214.80245
214.80245
214.80245
214.80245
214.80245
214.80245
214.80245
214.80245
214.80245
214.80245
214.80245
214.80245
214.80245
0
214.80245
15.67567
0
0
214.80245
214.80245
214.80245
214.80245
214.80245
214.80245
214.80245
214.80245
0
0
0
214.80245
214.80245
0
0
0
0
0
214.80245
214.80245
214.80245
214.80245
214.80245
214.80245
214.80245
214.80245
214.80245
214.80245
214.80245
214.80245
214.80245
214.80245
214.80245
214.80245
214.80245
214.80245
214.80245
214.80245
214.80245
214.80245
214.80245
214.80245
214.80245
214.80245
7.6524231
0
0
214.80245
214.80245
214.80245
214.80245
214.80245
214.80245
214.80245
214.80245
0
0
0
0.56375278
214.80245
0
0
0
0
0
0
214.80245
214.80245
214.80245
214.80245
214.80245
214.80245
214.80245
214.80245
214.80245
214.80245
214.80245
214.80245
214.80245
214.80245
214.80245
214.80245
214.80245
214.80245
214.80245
214.80245
214.80245
214.80245
214.80245
0
214.80245
3.3788309
0
0
214.80245
214.80245
214.80245
214.80245
214.80245
214.80245
214.80245
214.80245
0
0
0
4.3689904
214.80245
0
0
0
0
0
214.80245
214.80245
214.80245
214.80245
214.80245
214.80245
214.80245
214.80245
214.80245
214.80245
214.80245
214.80245
214.80245
214.80245
214.80245
214.80245
214.80245
214.80245
214.80245
214.80245
214.80245
214.80245
214.80245
214.80245
0
214.80245
0.4671047
0
0
0
214.80245
214.80245
214.80245
214.80245
214.80245
214.80245
214.80245
214.80245
0
0
0
8.3613747
214.80245
0
0
0
0
214.80245
214.80245
214.80245
214.80245
214.80245
214.80245
214.80245
214.80245
214.80245
214.80245
214.80245
214.80245
214.80245
214.80245
214.80245
214.80245
214.80245
214.80245
214.80245
214.80245
214.80245
214.80245
214.80245
214.80245
0.71669576
0
0
214.80245
214.80245
214.80245
214.80245
214.80245
214.80245
214.80245
214.80245
214.80245
0
0
0
214.80245
214.80245
0
0
214.80245
214.80245
214.80245
214.80245
214.80245
214.80245
214.80245
214.80245
214.80245
214.80245
214.80245
214.80245
214.80245
214.80245
214.80245
214.80245
214.80245
214.80245
214.80245
214.80245
214.80245
214.80245
214.80245
0
214.80245
0
0
214.80245
214.80245
214.80245
214.80245
0
0
41.352879
214.80245
214.80245
214.80245
214.80245
214.80245
214.80245
214.80245
214.80245
214.80245
214.80245
214.80245
214.80245
214.80245
214.80245
214.80245
214.80245
214.80245
214.80245
214.80245
214.80245
214.80245
214.80245
214.80245
214.80245
214.80245
0
214.80245
11.95421
0
0
0
0
0
0
0
0
0
0
0
0
214.80245
214.80245
214.80245
214.80245
214.80245
0
214.80245
214.80245
214.80245
214.80245
214.80245
214.80245
214.80245
214.80245
214.80245
214.80245
214.80245
214.80245
214.80245
214.80245
214.80245
214.80245
214.80245
214.80245
214.80245
214.80245
214.80245
214.80245
0.12996612
174.52435
214.80245
214.80245
214.80245
214.80245
214.80245
0
0
214.80245
214.80245
214.80245
22.398403
50.32287
214.80245
214.80245
0
0
214.80245
214.80245
214.80245
214.80245
214.80245
214.80245
214.80245
214.80245
214.80245
214.80245
214.80245
214.80245
214.80245
214.80245
214.80245
214.80245
214.80245
214.80245
214.80245
214.80245
214.80245
0
214.80245
81.211687
214.80245
214.80245
214.80245
214.80245
214.80245
214.80245
0
2.8649404
91.058531
214.80245
214.80245
22.398403
214.80245
0
0
214.80245
214.80245
214.80245
214.80245
214.80245
214.80245
214.80245
214.80245
214.80245
214.80245
214.80245
214.80245
214.80245
214.80245
214.80245
214.80245
214.80245
214.80245
214.80245
214.80245
0
214.80245
8.7661556
214.80245
214.80245
214.80245
214.80245
214.80245
214.80245
6.0486853
0.90109972
74.987096
74.987096
0
0
0
214.80245
214.80245
214.80245
214.80245
214.80245
214.80245
214.80245
214.80245
214.80245
214.80245
214.80245
214.80245
214.80245
214.80245
214.80245
214.80245
214.80245
214.80245
214.80245
214.80245
214.80245
0
0
214.80245
19.7986
214.80245
214.80245
214.80245
214.80245
214.80245
25.099764
2.5145977
214.80245
214.80245
0
0
0
214.80245
214.80245
214.80245
214.80245
214.80245
214.80245
214.80245
214.80245
214.80245
214.80245
214.80245
214.80245
214.80245
214.80245
214.80245
214.80245
214.80245
214.80245
214.80245
214.80245
214.80245
0
0
0
0
0
214.32533
214.80245
19.7986
214.80245
214.80245
214.80245
214.80245
214.80245
214.80245
25.099764
0
0
0
0
0
0
214.80245
214.80245
214.80245
214.80245
214.80245
214.80245
214.80245
214.80245
214.80245
214.80245
214.80245
214.80245
214.80245
214.80245
214.80245
214.80245
214.80245
214.80245
214.80245
214.80245
214.80245
0
0
0
0
0
0
0
0
214.32533
214.80245
214.80245
214.80245
214.80245
214.80245
214.80245
214.80245
214.80245
214.80245
0
0
0
0
0
0
0
214.80245
214.80245
214.80245
214.80245
214.80245
214.80245
214.80245
214.80245
214.80245
214.80245
214.80245
214.80245
214.80245
214.80245
214.80245
214.80245
214.80245
214.80245
214.80245
214.80245
214.80245
214.80245
0
0
0
0
0
0
0
0
214.80245
0
0
0
0
0
0
0
0
0
0
0
214.80245
214.80245
214.80245
214.80245
214.80245
214.80245
214.80245
214.80245
214.80245
214.80245
214.80245
214.80245
214.80245
214.80245
214.80245
214.80245
214.80245
214.80245
214.80245
214.80245
214.80245
214.80245
0
0
0
0
0
214.80245
0
0
0
0
0
0
0
0
0
0
214.80245
214.80245
214.80245
214.80245
214.80245
214.80245
214.80245
214.80245
214.80245
214.80245
214.80245
214.80245
214.80245
214.80245
214.80245
214.80245
214.80245
214.80245
214.80245
214.80245
214.80245
214.80245
214.80245
214.80245
0
0
0
0
0
0
0
0
0
0
0
0
214.80245
214.80245
214.80245
214.80245
214.80245
214.80245
214.80245
214.80245
214.80245
214.80245
214.80245
214.80245
214.80245
214.80245
214.80245
214.80245
214.80245
214.80245
214.80245
214.80245
214.80245
214.80245
214.80245
214.80245
214.80245
0
0
0
214.80245
0
0
0
0
0
0
0
0
0
214.80245
214.80245
214.80245
214.80245
214.80245
214.80245
214.80245
214.80245
214.80245
214.80245
214.80245
214.80245
214.80245
214.80245
214.80245
214.80245
214.80245
214.80245
214.80245
214.80245
214.80245
214.80245
214.80245
214.80245
214.80245
214.80245
0
0
0
214.80245
0
0
0
0
0
0
0
0
214.80245
214.80245
214.80245
214.80245
214.80245
214.80245
214.80245
214.80245
214.80245
214.80245
214.80245
214.80245
214.80245
214.80245
214.80245
214.80245
214.80245
214.80245
214.80245
214.80245
214.80245
214.80245
214.80245
214.80245
214.80245
214.80245
214.80245
214.80245
0
0
0
0
0
0
0
0
214.80245
0
0
214.80245
214.80245
214.80245
214.80245
214.80245
214.80245
214.80245
214.80245
214.80245
214.80245
214.80245
214.80245
214.80245
214.80245
214.80245
214.80245
214.80245
214.80245
214.80245
214.80245
214.80245
214.80245
214.80245
214.80245
214.80245
214.80245
214.80245
214.80245
214.80245
214.80245
0
0
0
0
214.80245
0
0
0
0
0
214.80245
214.80245
214.80245
214.80245
214.80245
214.80245
214.80245
214.80245
214.80245
214.80245
214.80245
214.80245
214.80245
214.80245
214.80245
214.80245
214.80245
214.80245
214.80245
214.80245
214.80245
214.80245
214.80245
214.80245
214.80245
214.80245
214.80245
214.80245
214.80245
214.80245
214.80245
214.80245
214.80245
214.80245
0
0
0
0
214.80245
0
0
0
0
0
0
0
214.80245
214.80245
214.80245
214.80245
214.80245
214.80245
214.80245
214.80245
214.80245
214.80245
214.80245
214.80245
214.80245
214.80245
214.80245
214.80245
214.80245
214.80245
214.80245
214.80245
214.80245
214.80245
214.80245
214.80245
214.80245
214.80245
214.80245
214.80245
214.80245
214.80245
214.80245
214.80245
214.80245
214.80245
214.80245
214.80245
214.80245
0
0
0
0
0
0
0
0
0
0
214.80245
214.80245
214.80245
214.80245
214.80245
214.80245
214.80245
214.80245
214.80245
214.80245
214.80245
214.80245
214.80245
214.80245
214.80245
214.80245
214.80245
214.80245
214.80245
214.80245
214.80245
214.80245
214.80245
214.80245
214.80245
214.80245
214.80245
214.80245
214.80245
214.80245
214.80245
214.80245
214.80245
214.80245
214.80245
214.80245
214.80245
214.80245
214.80245
0
214.80245
0
0
0
0
0
0
0
214.80245
214.80245
214.80245
214.80245
214.80245
214.80245
214.80245
214.80245
214.80245
214.80245
214.80245
214.80245
214.80245
214.80245
214.80245
214.80245
214.80245
214.80245
214.80245
214.80245
214.80245
214.80245
214.80245
214.80245
214.80245
214.80245
214.80245
214.80245
214.80245
214.80245
214.80245
214.80245
214.80245
214.80245
214.80245
214.80245
214.80245
214.80245
214.80245
214.80245
214.80245
0
214.80245
0
0
0
0
0
0
0
214.80245
214.80245
214.80245
214.80245
214.80245
214.80245
214.80245
214.80245
214.80245
214.80245
214.80245
214.80245
214.80245
214.80245
214.80245
214.80245
214.80245
214.80245
214.80245
214.80245
214.80245
214.80245
214.80245
214.80245
214.80245
214.80245
214.80245
214.80245
214.80245
214.80245
214.80245
214.80245
214.80245
214.80245
214.80245
214.80245
214.80245
214.80245
214.80245
214.80245
214.80245
214.80245
214.80245
0
0
0
0
0
0
0
0
0
0
0
214.80245
214.80245
214.80245
214.80245
214.80245
214.80245
214.80245
214.80245
214.80245
214.80245
214.80245
214.80245
214.80245
214.80245
214.80245
214.80245
214.80245
214.80245
214.80245
214.80245
214.80245
214.80245
214.80245
214.80245
214.80245
214.80245
214.80245
214.80245
214.80245
214.80245
214.80245
214.80245
214.80245
214.80245
214.80245
214.80245
214.80245
214.80245
214.80245
214.80245
214.80245
214.80245
214.80245
214.80245
214.80245
0
0
0
0
0
0
0
0
0
0
214.80245
0
0
0
0
214.80245
214.80245
214.80245
214.80245
214.80245
214.80245
214.80245
214.80245
214.80245
214.80245
214.80245
214.80245
214.80245
214.80245
214.80245
214.80245
214.80245
214.80245
214.80245
214.80245
214.80245
214.80245
214.80245
214.80245
214.80245
214.80245
214.80245
214.80245
214.80245
214.80245
214.80245
214.80245
214.80245
214.80245
214.80245
214.80245
214.80245
214.80245
214.80245
214.80245
214.80245
214.80245
214.80245
214.80245
214.80245
214.80245
214.80245
0
0
0
0
0
0
0
0
0
0
0
0
214.80245
214.80245
214.80245
214.80245
214.80245
214.80245
214.80245
0
214.80245
214.80245
214.80245
214.80245
214.80245
214.80245
214.80245
214.80245
214.80245
214.80245
214.80245
214.80245
214.80245
214.80245
214.80245
214.80245
214.80245
214.80245
214.80245
214.80245
214.80245
214.80245
214.80245
214.80245
214.80245
214.80245
214.80245
214.80245
214.80245
214.80245
214.80245
214.80245
214.80245
214.80245
214.80245
214.80245
214.80245
214.80245
214.80245
214.80245
214.80245
214.80245
214.80245
214.80245
214.80245
214.80245
214.80245
214.80245
214.80245
214.80245
0
0
0
214.80245
214.80245
214.80245
214.80245
214.80245
214.80245
214.80245
214.80245
214.80245
214.80245
214.80245
214.80245
214.80245
214.80245
214.80245
214.80245
214.80245
214.80245
214.80245
214.80245
214.80245
214.80245
214.80245
214.80245
214.80245
214.80245
214.80245
214.80245
214.80245
214.80245
214.80245
214.80245
214.80245
214.80245
214.80245
214.80245
214.80245
214.80245
214.80245
214.80245
214.80245
214.80245
214.80245
214.80245
214.80245
214.80245
214.80245
214.80245
214.80245
214.80245
214.80245
214.80245
214.80245
214.80245
214.80245
214.80245
214.80245
214.80245
214.80245
214.80245
214.80245
214.80245
214.80245
214.80245
214.80245
214.80245
214.80245
214.80245
214.80245
214.80245
214.80245
214.80245
214.80245
214.80245
214.80245
214.80245
214.80245
214.80245
214.80245
214.80245
214.80245
214.80245
214.80245
214.80245
214.80245
214.80245
214.80245
214.80245
214.80245
214.80245
214.80245
214.80245
214.80245
214.80245
214.80245
214.80245
214.80245
214.80245
214.80245
214.80245
214.80245
214.80245
214.80245
214.80245
214.80245
214.80245
214.80245
214.80245
214.80245
214.80245
214.80245
214.80245
214.80245
214.80245
214.80245
214.80245
214.80245
214.80245
214.80245
214.80245
214.80245
214.80245
214.80245
214.80245
214.80245
214.80245
214.80245
214.80245
214.80245
214.80245
214.80245
214.80245
214.80245
214.80245
214.80245
214.80245
214.80245
214.80245
214.80245
214.80245
214.80245
214.80245
214.80245
214.80245
214.80245
214.80245
214.80245
214.80245
214.80245
214.80245
214.80245
214.80245
214.80245
214.80245
214.80245
214.80245
214.80245
214.80245
214.80245
214.80245
214.80245
214.80245
214.80245
214.80245
214.80245
214.80245
214.80245
214.80245
214.80245
214.80245
214.80245
214.80245
214.80245
214.80245
214.80245
214.80245
214.80245
214.80245
214.80245
214.80245
214.80245
214.80245
214.80245
214.80245
214.80245
214.80245
214.80245
214.80245
214.80245
214.80245
214.80245
214.80245
214.80245
214.80245
214.80245
214.80245
214.80245
214.80245
214.80245
214.80245
214.80245
214.80245
214.80245
214.80245
214.80245
214.80245
214.80245
214.80245
214.80245
214.80245
214.80245
214.80245
214.80245
214.80245
214.80245
214.80245
214.80245
214.80245
214.80245
214.80245
214.80245
214.80245
214.80245
214.80245
214.80245
214.80245
214.80245
214.80245
214.80245
214.80245
214.80245
214.80245
214.80245
214.80245
214.80245
214.80245
214.80245
214.80245
214.80245
214.80245
214.80245
214.80245
214.80245
214.80245
214.80245
214.80245
214.80245
214.80245
214.80245
214.80245
214.80245
214.80245
214.80245
214.80245
214.80245
214.80245
214.80245
214.80245
214.80245
214.80245
214.80245
214.80245
214.80245
214.80245
214.80245
214.80245
214.80245
214.80245
214.80245
214.80245
214.80245
214.80245
214.80245
214.80245
214.80245
214.80245
214.80245
214.80245
214.80245
214.80245
214.80245
214.80245
214.80245
214.80245
214.80245
214.80245
214.80245
214.80245
214.80245
214.80245
214.80245
214.80245
214.80245
214.80245
214.80245
214.80245
214.80245
214.80245
214.80245
214.80245
214.80245
214.80245
214.80245
214.80245
214.80245
214.80245
214.80245
214.80245
214.80245
214.80245
214.80245
214.80245
214.80245
0
214.80245
214.80245
214.80245
0
0
0
0
214.79165
0
214.79165
214.79165
214.79165
214.80245
214.80245
214.80245
214.80245
214.80245
214.80245
0
0
0
0
0
0
0
0
0
0
214.80245
15.055838
214.80245
214.80245
214.80245
214.80245
214.80245
214.80245
214.80245
214.80245
214.80245
214.80245
214.80245
214.80245
214.80245
214.80245
214.80245
214.80245
214.80245
214.80245
214.80245
214.80245
214.80245
214.80245
0
0
0
0
0
0
0
214.80245
214.80245
214.80245
214.80245
214.80245
214.80245
214.80245
214.80245
214.80245
5.396149
5.396149
5.396149
214.80245
7.8674827
5.396149
214.80245
17.89498
7.8674827
214.80245
214.80245
17.89498
214.80245
214.80245
214.80245
214.80245
214.80245
214.80245
214.80245
214.80245
214.80245
214.80245
214.80245
214.80245
214.80245
214.80245
214.80245
214.80245
214.80245
214.80245
214.80245
214.80245
214.80245
0
0
214.80245
0
0
0
0
0
0
0
0
214.80245
214.80245
214.80245
214.80245
0.2568268
214.80245
214.80245
214.80245
0.2568268
214.80245
214.80245
214.80245
214.80245
214.80245
214.80245
214.80245
214.80245
214.80245
9.1983043
9.1983043
214.80245
5.396149
1.1313003
1.1313003
7.8674827
3.609439
3.609439
214.80245
1.2502734
1.2502734
214.80245
214.80245
0.42083277
214.80245
214.80245
214.80245
0
214.80245
214.80245
214.80245
214.80245
214.80245
214.80245
214.80245
214.80245
214.80245
214.80245
214.80245
0
0
0
0
0
0
0
0
0
0
0.2568268
0.0077856557
12.730783
214.80245
0.0077856557
214.80245
214.80245
214.80245
9.1983043
1.1313003
3.609439
6.5552205
214.80245
0.1259334
0.1259334
214.80245
214.80245
34.49641
0.1259334
214.80245