/*--------------------------------*- C++ -*----------------------------------*\
  =========                 |
  \\      /  F ield         | OpenFOAM: The Open Source CFD Toolbox
   \\    /   O peration     | Website:  https://openfoam.org
    \\  /    A nd           | Version:  8
     \\/     M anipulation  |
\*---------------------------------------------------------------------------*/
FoamFile
{
    version     2.0;
    format      ascii;
    class       extendedFeatureEdgeMesh;
    location    "constant/extendedFeatureEdgeMesh";
    object      buildings.extendedFeatureEdgeMesh;
}
// * * * * * * * * * * * * * * * * * * * * * * * * * * * * * * * * * * * * * //

// points

232
(
(108.4446 -70.945702 21.945601)
(216.60693 -8.352478 21.945601)
(279.08762 -116.32031 21.945601)
(170.92528 -178.91354 21.945601)
(-4.289073 -136.18436 21.945601)
(87.33976 -83.159012 21.945601)
(36.120518 -256.92465 21.945601)
(149.82043 -191.12685 21.945601)
(-186.59464 -176.03679 10.9728)
(-149.83459 -285.87256 10.9728)
(-24.247263 -148.0424 10.9728)
(13.675066 -263.22937 10.9728)
(-92.845459 -120.04704 47.548801)
(-188.37257 -152.38361 47.548801)
(-195.21373 -132.17412 47.548801)
(-114.18146 -32.771545 47.548801)
(-245.62004 16.733253 7.3802977)
(-92.845459 86.797043 7.3802977)
(-92.845459 -32.771545 47.548801)
(-190.63541 101.75468 10.9728)
(-174.01762 73.249733 10.9728)
(-234.02237 87.158897 10.9728)
(-257.94293 45.205021 10.9728)
(-28.643129 163.50838 9.4488001)
(-215.66107 160.24789 9.4488001)
(-170.30049 81.163284 9.4488001)
(-39.40575 183.01317 9.4488001)
(-131.98851 208.23997 9.4488001)
(92.77774 133.18112 18.288)
(166.29901 112.55715 18.288)
(217.09483 35.192936 18.288)
(92.77774 -46.431248 18.288)
(68.848907 52.296951 17.95204)
(64.369713 52.296951 15.619125)
(46.057384 52.296951 18.295639)
(46.057384 52.296951 21.327515)
(68.848907 52.296951 21.334555)
(46.057384 -52.306854 21.327515)
(46.057384 -52.306854 18.295639)
(64.369713 -52.306854 15.619125)
(68.848907 -52.306854 17.95204)
(68.848907 -52.306854 21.334555)
(62.906788 -52.933601 12.7762)
(62.906788 52.933601 12.7762)
(58.724545 52.933601 12.7762)
(58.724545 -52.933601 12.7762)
(43.814999 52.933601 3.2504151)
(43.814999 -52.933601 3.2504151)
(49.387074 52.933601 3.2504151)
(49.387074 -52.933601 3.2504151)
(62.906788 52.933601 9.7762003)
(62.906788 -52.933601 9.7762003)
(-45.768139 52.296951 19.348541)
(-64.194481 52.296951 16.655361)
(-68.386971 52.296951 18.838953)
(-68.386971 52.296951 22.221468)
(-45.768139 52.296951 22.380415)
(-68.386971 -52.306854 22.221468)
(-68.386971 -52.306854 18.838953)
(-64.194481 -52.306854 16.655361)
(-45.768139 -52.306854 22.380415)
(-45.768139 -52.306854 19.348541)
(-34.290001 71.983597 5.9689999)
(-34.290001 113.3348 5.9689999)
(34.445309 113.3348 5.9689999)
(34.445309 71.983597 5.9689999)
(63.808437 17.9832 5.0545998)
(63.808437 51.5112 5.0545998)
(71.123642 17.9832 5.0545998)
(71.123642 51.5112 5.0545998)
(63.808437 -51.5112 5.0545998)
(63.808437 -17.9832 5.0545998)
(71.123642 -51.5112 5.0545998)
(71.123642 -17.9832 5.0545998)
(-63.648762 17.9832 5.0545998)
(-70.963959 17.9832 5.0545998)
(-63.648762 51.5112 5.0545998)
(-70.963959 51.5112 5.0545998)
(-50.875004 85.975845 5.0545998)
(-64.004364 85.975845 5.0545998)
(-50.875004 95.119843 5.0545998)
(-64.004364 95.119843 5.0545998)
(-63.648762 -51.5112 5.0545998)
(-70.963959 -51.5112 5.0545998)
(-63.648762 -17.9832 5.0545998)
(-70.963959 -17.9832 5.0545998)
(-70.354362 1.9304 16.2052)
(-70.354362 5.5626001 16.2052)
(-63.648762 1.9304 16.2052)
(-63.648762 5.5626001 16.2052)
(-63.039162 -93.713318 5.0545998)
(-63.039162 -69.202316 5.0545998)
(39.4716 -84.607399 4.7498002)
(39.4716 -75.285599 4.7498002)
(-70.354362 -93.713318 5.0545998)
(-70.354362 -69.202316 5.0545998)
(10.272901 -80.847923 15.314949)
(-10.272901 -80.847923 15.314949)
(10.272901 -79.055847 15.314949)
(-10.272901 -79.055847 15.314949)
(39.4716 -84.607399 3.8354001)
(39.4716 -75.285599 3.8354001)
(-62.906788 52.933601 12.7762)
(-62.906788 -52.933601 12.7762)
(-58.724545 -52.933601 12.7762)
(-58.724545 52.933601 12.7762)
(-43.577694 -52.933601 3.0987999)
(-49.149769 -52.933601 3.0987999)
(-62.906788 -52.933601 9.7762003)
(-62.906788 52.933601 9.7762003)
(-56.777889 75.382668 5.8673997)
(-18.5928 61.074532 5.8673997)
(-18.5928 65.90345 5.8673997)
(-40.6908 75.382668 5.8673997)
(-40.6908 42.595798 5.8673997)
(-43.611801 72.263 9.1694002)
(-43.611801 42.595798 9.1694002)
(-56.777889 72.263 9.1694002)
(-114.18147 -104.74419 7.3802977)
(216.60693 -8.352478 1.0649537e-13)
(108.4446 -70.945702 -2.7711167e-13)
(279.08762 -116.32031 1.5417917e-12)
(170.92528 -178.91354 1.1581847e-12)
(87.33976 -83.159012 5.3290705e-15)
(-4.289073 -136.18436 5.3290705e-15)
(36.120518 -256.92465 5.3290705e-15)
(149.82043 -191.12685 5.3290705e-15)
(-24.247263 -148.0424 1.7763568e-15)
(-186.59464 -176.03679 1.7763568e-15)
(-149.83459 -285.87256 1.7763568e-15)
(13.675066 -263.22937 1.7763568e-15)
(-188.37257 -152.38361 0)
(-92.845459 -120.04704 0)
(-114.18147 -104.74419 47.548801)
(-195.21367 -132.17409 7.3802977)
(-114.18146 -32.771545 7.3802977)
(-92.845459 -32.771545 7.3802977)
(-92.845459 86.797043 0)
(-245.62004 16.733253 0)
(-174.01762 73.249733 -8.8817842e-16)
(-190.63541 101.75468 -8.8817842e-16)
(-234.02237 87.158897 -8.8817842e-16)
(-257.94293 45.205021 -8.8817842e-16)
(-28.643129 163.50838 0)
(-39.40575 183.01317 0)
(-131.98851 208.23997 0)
(-215.66107 160.24789 0)
(-170.30049 81.163284 0)
(166.29901 112.55715 -1.7763568e-15)
(92.77774 -46.431248 -1.7763568e-15)
(217.09483 35.192936 -1.7763568e-15)
(63.844009 52.296951 18.727837)
(63.844009 -52.306854 18.727837)
(59.601086 52.933601 9.7762003)
(59.601086 -52.933601 9.7762003)
(-63.668774 52.296951 19.764072)
(-63.668774 -52.306854 19.764072)
(-34.290001 113.3348 0)
(-34.290001 71.983597 0)
(34.445309 113.3348 2.220446e-16)
(34.445309 71.983597 2.220446e-16)
(63.808437 51.5112 0)
(63.808437 17.9832 0)
(71.123642 17.9832 0)
(71.123642 51.5112 0)
(63.808437 -17.9832 0)
(63.808437 -51.5112 0)
(71.123642 -51.5112 0)
(71.123642 -17.9832 -1.110223e-16)
(-70.963959 17.9832 -1.110223e-16)
(-63.648762 17.9832 -1.110223e-16)
(-63.648762 51.5112 -1.110223e-16)
(-70.963959 51.5112 -1.110223e-16)
(-64.004364 85.975845 -1.110223e-16)
(-50.875004 85.975845 -1.110223e-16)
(-50.875004 95.119843 -1.110223e-16)
(-64.004364 95.119843 -1.110223e-16)
(-70.963959 -51.5112 2.220446e-16)
(-63.648762 -51.5112 2.220446e-16)
(-63.648762 -17.9832 2.220446e-16)
(-70.963959 -17.9832 2.220446e-16)
(-70.354362 5.5626001 2.220446e-16)
(-70.354362 1.9304 2.220446e-16)
(-63.648762 1.9304 2.220446e-16)
(-63.648762 5.5626001 2.220446e-16)
(-63.039162 -93.713318 -1.110223e-16)
(-63.039162 -84.607399 3.8354001)
(-63.039162 -84.607399 4.7498002)
(-63.039162 -75.285599 3.8354001)
(-63.039162 -69.202316 -1.110223e-16)
(-63.039162 -75.285599 4.7498002)
(-10.272901 -79.055847 4.7498002)
(-10.272901 -80.847923 4.7498002)
(10.272901 -80.847923 4.7498002)
(10.272901 -79.055847 4.7498002)
(10.924885 -75.285599 0)
(-39.047749 -75.285599 0)
(-39.047749 -75.285599 3.8354001)
(10.924885 -75.285599 3.8354001)
(-39.047749 -84.607399 3.8354001)
(-39.047749 -84.607399 0)
(10.924885 -84.607399 0)
(10.924885 -84.607399 3.8354001)
(-70.354362 -69.202316 -1.110223e-16)
(-70.354362 -93.713318 -1.110223e-16)
(-53.079262 42.595798 9.1694002)
(-53.079262 52.933601 9.1694002)
(-43.577694 42.595798 3.0987999)
(-49.149769 42.595798 3.0987999)
(-56.777889 42.595798 7.9724455)
(-59.601086 -52.933601 9.7762003)
(-56.777889 52.933601 7.9724455)
(-59.601086 52.933601 9.7762003)
(-56.777889 52.933601 9.1694002)
(-43.611801 72.263 5.8673997)
(-43.611801 42.595798 5.8673997)
(-40.6908 61.074532 5.8673997)
(-56.777889 72.263 5.8673997)
(-40.6908 65.90345 5.8673997)
(-40.6908 61.074532 0)
(-18.5928 61.074532 0)
(-18.5928 65.90345 0)
(-40.6908 42.595798 0)
(-40.6908 75.382668 0)
(-40.6908 65.90345 0)
(-56.777889 42.595798 0)
(-56.777889 75.382668 0)
(92.77774 133.18112 -1.7763568e-15)
(225.00644 -147.61693 1.3499882e-12)
(-140.60901 -136.21532 0)
(-106.65308 -149.09204 1.7763568e-15)
(-106.65308 -149.09204 10.9728)
)

// edges

346
(
(120 0)
(119 1)
(121 2)
(3 122)
(2 3)
(1 0)
(0 3)
(5 123)
(4 5)
(6 4)
(4 124)
(7 6)
(6 125)
(7 126)
(5 7)
(231 8)
(8 9)
(10 231)
(11 10)
(9 11)
(10 127)
(8 128)
(9 129)
(11 130)
(12 13)
(13 131)
(132 12)
(14 133)
(134 14)
(135 15)
(16 17)
(17 137)
(16 134)
(136 17)
(14 13)
(15 133)
(18 15)
(12 18)
(16 138)
(20 139)
(19 20)
(19 140)
(21 19)
(22 21)
(21 141)
(20 22)
(22 142)
(24 25)
(25 23)
(23 26)
(26 27)
(27 24)
(23 143)
(26 144)
(27 145)
(24 146)
(25 147)
(28 29)
(29 148)
(31 149)
(30 31)
(29 30)
(30 150)
(31 28)
(32 33)
(33 34)
(35 151)
(34 35)
(36 32)
(151 36)
(152 37)
(37 38)
(38 39)
(40 41)
(41 152)
(39 40)
(38 34)
(39 33)
(40 32)
(41 36)
(37 35)
(43 44)
(42 43)
(44 46)
(45 44)
(46 48)
(47 46)
(48 153)
(49 48)
(153 50)
(51 50)
(50 43)
(154 51)
(51 42)
(47 49)
(49 154)
(45 47)
(52 53)
(53 54)
(54 55)
(55 155)
(56 52)
(155 56)
(57 58)
(156 57)
(58 59)
(61 60)
(60 156)
(59 61)
(56 60)
(52 61)
(53 59)
(54 58)
(55 57)
(158 62)
(157 63)
(159 64)
(160 65)
(65 64)
(62 65)
(67 161)
(66 67)
(66 162)
(68 66)
(69 68)
(68 163)
(67 69)
(69 164)
(71 165)
(70 71)
(70 166)
(72 70)
(73 72)
(72 167)
(71 73)
(73 168)
(75 169)
(74 75)
(74 170)
(76 74)
(77 76)
(76 171)
(75 77)
(77 172)
(79 173)
(78 79)
(78 174)
(80 78)
(81 80)
(80 175)
(79 81)
(81 176)
(83 177)
(82 83)
(82 178)
(84 82)
(85 84)
(84 179)
(83 85)
(85 180)
(87 181)
(86 87)
(86 182)
(88 86)
(89 88)
(88 183)
(87 89)
(89 184)
(90 185)
(91 90)
(189 91)
(187 92)
(93 190)
(196 197)
(197 188)
(199 200)
(95 203)
(94 95)
(94 204)
(90 94)
(95 91)
(97 192)
(96 97)
(96 193)
(98 96)
(99 98)
(98 194)
(97 99)
(99 191)
(202 201)
(93 92)
(92 100)
(198 101)
(186 199)
(202 100)
(93 101)
(103 104)
(102 103)
(105 104)
(104 106)
(206 105)
(106 107)
(207 106)
(208 107)
(107 210)
(212 211)
(210 108)
(109 108)
(108 103)
(212 109)
(109 102)
(110 217)
(111 112)
(112 218)
(218 113)
(111 216)
(111 220)
(112 221)
(114 222)
(216 114)
(110 113)
(113 223)
(116 215)
(115 116)
(117 115)
(115 214)
(209 225)
(114 215)
(116 205)
(110 226)
(213 117)
(117 217)
(1 2)
(18 136)
(227 28)
(45 42)
(62 63)
(63 64)
(198 195)
(100 101)
(105 102)
(133 118)
(118 134)
(135 118)
(136 135)
(152 151)
(154 153)
(155 156)
(186 187)
(190 188)
(192 191)
(190 187)
(193 192)
(191 194)
(199 197)
(198 202)
(186 188)
(205 206)
(209 208)
(211 209)
(210 212)
(213 211)
(206 213)
(214 215)
(217 214)
(216 219)
(218 224)
(205 207)
(193 194)
(208 207)
(119 120)
(121 119)
(228 121)
(122 228)
(120 122)
(131 229)
(229 132)
(132 137)
(157 158)
(159 157)
(160 159)
(158 160)
(195 196)
(200 201)
(185 189)
(225 222)
(226 225)
(123 124)
(124 125)
(125 126)
(126 123)
(127 230)
(230 128)
(128 129)
(129 130)
(130 127)
(137 138)
(138 131)
(139 140)
(140 141)
(141 142)
(142 139)
(143 144)
(144 145)
(145 146)
(146 147)
(147 143)
(148 227)
(149 150)
(150 148)
(227 149)
(161 162)
(162 163)
(163 164)
(164 161)
(165 166)
(166 167)
(167 168)
(168 165)
(169 170)
(170 171)
(171 172)
(172 169)
(173 174)
(174 175)
(175 176)
(176 173)
(177 178)
(178 179)
(179 180)
(180 177)
(181 182)
(182 183)
(183 184)
(184 181)
(203 204)
(204 185)
(189 203)
(196 200)
(201 195)
(219 220)
(220 221)
(221 224)
(222 219)
(223 226)
(224 223)
)

// concaveStart mixedStart nonFeatureStart
118 119 228
// internalStart flatStart openStart multipleStart
241 270 270 346
// normals

343
(
(-0.50087401 0.86552021 0)
(0.86552016 0.50087409 0)
(0.50087397 -0.86552023 0)
(0.50087408 -0.86552017 0)
(-0.8655202 -0.50087401 0)
(0.3206346 -0.94720296 0)
(0.32063455 -0.94720298 0)
(1 0 0)
(-1 0 0)
(0 1 0)
(1 0 0)
(0 -1 0)
(0 1 0)
(0 -1 0)
(1 0 0)
(0 -1 0)
(-1 0 0)
(-0.50087406 0.86552017 0)
(-0.94829895 -0.31737849 -0)
(0.50087399 -0.86552022 0)
(0.86552019 0.50087404 0)
(-0.012736378 0.99991889 0)
(-0.31940056 0.9476198 0)
(-0.94829896 -0.31737846 -0)
(0.1371732 -0.99054708 0)
(0.94984773 0.31271279 0)
(-0.41686173 0.90896991 0)
(-0.94720251 -0.32063595 -5.7384874e-07)
(0.86391212 0.50364259 0)
(-0.31885046 0.94780503 0)
(-0.86871621 0.49531015 0)
(0.31693567 -0.94844704 0)
(0.87555192 0.48312403 0)
(0.26289395 0.96482474 0)
(-0.49753869 0.86744179 0)
(-0.86744173 -0.49753878 -0)
(0.50255733 -0.86454388 0)
(0.27009154 0.96283465 0)
(0.54884956 -0.83592115 0)
(0.83592123 0.54884943 0)
(-1 0 0)
(-1 0 0)
(0 -1 -0)
(1 0 0)
(0 1 0)
(-1 0 0)
(0 -1 -0)
(1 0 0)
(0 1 0)
(0 -1 -0)
(1 0 0)
(0 1 0)
(-1 0 0)
(0 -1 -0)
(1 0 0)
(0 1 0)
(-1 0 0)
(0 -1 -0)
(1 0 0)
(0 1 0)
(-1 0 0)
(-1 0 0)
(0 -1 -0)
(1 0 0)
(0 1 0)
(-1 0 0)
(0 -1 -0)
(0 1 0)
(-1 0 0)
(1 0 0)
(0 -1 -0)
(1 0 0)
(0 1 0)
(1 0 0)
(0 1 0)
(1 0 0)
(-0.50087401 0.86552021 0)
(0.86552016 0.50087409 -0)
(-0.8655202 -0.50087401 0)
(0.50087403 -0.8655202 -1.74129e-07)
(0 0 1)
(-0 0 1)
(-0.50087406 0.86552017 0)
(-0 0 1)
(-0.94829895 -0.31737849 0)
(0 0 1)
(0.50087399 -0.86552022 0)
(0.86552019 0.50087404 0)
(0 0 1)
(-0.31940056 0.9476198 0)
(-0.94829896 -0.31737846 0)
(0 0 1)
(-0.012736378 0.99991889 0)
(0.94984773 0.31271279 0)
(0 0 1)
(0.1371732 -0.99054708 0)
(0.32063458 -0.94720297 -2.454415e-08)
(0 0 1)
(-0.94720244 -0.32063613 0)
(1 0 0)
(-0.32063424 0.94720309 0)
(0 0 1)
(-0.32063435 0.94720305 2.3243026e-07)
(-0.94720143 -0.32063914 -1.6828537e-06)
(0 1 0)
(-1 2.1200819e-07 0)
(-0.41686173 0.90896991 0)
(-0 0 1)
(1 0 -0)
(0 -0 1)
(-0.94720252 -0.32063592 0)
(0 0 1)
(-0 0 1)
(0 1 -0)
(0 -0 1)
(1 -0 0)
(0.86391212 0.50364259 0)
(0 0 1)
(-0.31885046 0.94780503 0)
(-0.86871621 0.49531015 0)
(0 0 1)
(0.31693567 -0.94844704 0)
(0 0 1)
(-0.86744173 -0.49753878 0)
(0.50255733 -0.86454388 0)
(0 0 1)
(0.87555192 0.48312403 0)
(0.26289395 0.96482474 0)
(0 0 1)
(-0.49753869 0.86744179 0)
(0.27009154 0.96283465 0)
(0 0 1)
(0.54884956 -0.83592115 0)
(-1 0 0)
(0 0 1)
(0.83592123 0.54884943 0)
(0 1 0)
(0.46193449 0 -0.88691405)
(-0 1 0)
(-0.14462253 0 -0.9894869)
(0 1 0)
(0.14462257 -0 0.98948689)
(-1 0 0)
(0 1 -0)
(1 -0 0)
(-0.46193446 0 0.88691406)
(0 -1 0)
(0.14462257 0 0.98948689)
(-1 0 0)
(0 -1 0)
(-0.14462253 0 -0.9894869)
(0 -1 0)
(1 0 0)
(-0.46193446 0 0.88691406)
(0 -1 0)
(0.46193449 0 -0.88691405)
(0 -0 1)
(0 1 -0)
(1 0 0)
(-0.53839899 0 0.84269005)
(0 1 0)
(0 0 1)
(0 0 -1)
(0 1 0)
(-0.53839899 0 0.84269005)
(0.53839902 0 -0.84269003)
(0 0 -1)
(0 0 -1)
(0 1 0)
(1 0 0)
(0 0 -1)
(0 -1 0)
(0 -1 0)
(0.53839902 0 -0.84269003)
(0 -1 -0)
(0 1 0)
(0.14462265 0 -0.98948688)
(-0 1 0)
(-0.461935 0 -0.88691378)
(0 1 0)
(-1 0 -0)
(0.46193462 0 0.88691398)
(0 1 -0)
(1 0 -0)
(-0.14462262 0 0.98948689)
(-0 -1 0)
(-1 -0 0)
(0.46193462 0 0.88691398)
(0 -1 0)
(-0.461935 -0 -0.88691378)
(0 -1 -0)
(1 0 0)
(-0.14462262 0 0.98948689)
(0 -1 0)
(0.14462265 0 -0.98948688)
(0 -1 0)
(-1 0 0)
(0 1 -0)
(1 0 0)
(0 0 1)
(-1 0 0)
(0 0 1)
(-0 -1 0)
(1 0 0)
(0 -0 1)
(-0 1 0)
(-1 0 0)
(0 0 1)
(-0 -1 0)
(1 0 0)
(0 -0 1)
(-0 1 0)
(-0 -1 0)
(0 0 1)
(1 0 0)
(-0 1 0)
(0 0 1)
(-1 0 0)
(-0 -1 0)
(0 0 1)
(1 0 0)
(-0 1 0)
(0 0 1)
(-1 0 0)
(-0 -1 0)
(0 0 1)
(1 0 0)
(-0 1 0)
(0 0 1)
(-1 0 0)
(-1 0 0)
(0 0 1)
(-0 -1 0)
(1 0 0)
(0 -0 1)
(-0 1 0)
(1 0 0)
(1 0 0)
(0 -0 1)
(1 0 0)
(-0 1 0)
(0 0 1)
(0 -1 0)
(0 0 1)
(-0 1 0)
(-1 0 0)
(0 1 0)
(0 0 -1)
(-1 0 0)
(0 0 1)
(-0 -1 0)
(-0 -1 0)
(-1 0 0)
(0 0 1)
(1 0 0)
(0 -1 -0)
(-0 1 0)
(0 0 1)
(1 0 0)
(-1 0 0)
(0 1 0)
(1 0 0)
(0 -1 0)
(1 0 0)
(0 0 1)
(0 -1 -0)
(0 0 -1)
(0 1 -0)
(0 -1 0)
(0 0 -1)
(0 0 -1)
(1 0 0)
(0 0 1)
(0 -1 0)
(-1 0 0)
(0.53839899 0 0.84269005)
(-0 0 1)
(0.53839899 3.9378772e-10 0.84269006)
(0 -1 0)
(0.53839899 0 0.84269005)
(0 1 0)
(0 -0 -1)
(0 -1 0)
(0.53839899 -0 0.84269006)
(-0.53839902 -0 -0.84269004)
(-0 0 -1)
(-0.53839902 -2.2572731e-10 -0.84269004)
(-0.53839903 -0 -0.84269003)
(0 1 0)
(0 -0 -1)
(0 -1 0)
(-1 0 0)
(-0 0 -1)
(0 1 0)
(0 0 1)
(-1 0 0)
(0 -0 1)
(1 0 0)
(-0 1 0)
(-0 0 1)
(1 0 0)
(-0 -1 0)
(0 0 1)
(1 0 0)
(0 -1 -0)
(0 0 1)
(-0 1 0)
(0 -0 1)
(1 0 0)
(0 -1 0)
(0 0 1)
(-0 1 0)
(0 0 1)
(1 0 0)
(0 -1 0)
(-1 0 0)
(0 -1 0)
(0 0 1)
(-1 0 0)
(0 0 1)
(-1 0 0)
(0 1 0)
(0 -1 0)
(0 0 1)
(0 1 -0)
(0 1 -0)
(-0.32063435 0.94720305 0)
(-1 2.1200819e-07 0)
(-0.32063413 0.94720312 -4.8719646e-07)
(0 -0 1)
(1 0 -0)
(1 0 0)
(0 0 1)
(0 0 1)
(1 0 0)
(-0 0 1)
(0 0 1)
(1 -0 0)
(-0.53839903 0 -0.84269003)
(0 0 1)
(0 -1 0)
(0 0 1)
(0 -1 0)
)

// normal volume types

343
(
0
0
0
0
0
0
0
0
0
0
0
0
0
0
0
0
0
0
0
0
0
0
0
0
0
0
0
0
0
0
0
0
0
0
0
0
0
0
0
0
0
0
0
0
0
0
0
0
0
0
0
0
0
0
0
0
0
0
0
0
0
0
0
0
0
0
0
0
0
0
0
0
0
0
0
0
0
0
0
0
0
0
0
0
0
0
0
0
0
0
0
0
0
0
0
0
0
0
0
0
0
0
0
0
0
0
0
0
0
0
0
0
0
0
0
0
0
0
0
0
0
0
0
0
0
0
0
0
0
0
0
0
0
0
0
0
0
0
0
0
0
0
0
0
0
0
0
0
0
0
0
0
0
0
0
0
0
0
0
0
0
0
0
0
0
0
0
0
0
0
0
0
0
0
0
0
0
0
0
0
0
0
0
0
0
0
0
0
0
0
0
0
0
0
0
0
0
0
0
0
0
0
0
0
0
0
0
0
0
0
0
0
0
0
0
0
0
0
0
0
0
0
0
0
0
0
0
0
0
0
0
0
0
0
0
0
0
0
0
0
0
0
0
0
0
0
0
0
0
0
0
0
0
0
0
0
0
0
0
0
0
0
0
0
0
0
0
0
0
0
0
0
0
0
0
0
0
0
0
0
0
0
0
0
0
0
0
0
0
0
0
0
0
0
0
0
0
0
0
0
0
0
0
0
0
0
0
0
0
0
0
0
0
0
0
0
0
0
0
0
0
0
0
0
0
0
0
0
0
0
0
0
0
0
0
0
0
0
0
0
0
0
0
)

// normalDirections

346
(
2(1 -1)
2(1 -1)
2(1 -1)
2(1 -1)
2(1 -1)
2(1 -1)
2(1 -1)
2(1 -1)
2(1 -1)
2(1 -1)
2(1 -1)
2(1 -1)
2(1 -1)
2(1 -1)
2(1 -1)
2(1 -1)
2(1 -1)
2(1 -1)
2(1 -1)
2(1 -1)
2(1 -1)
2(1 -1)
2(1 -1)
2(1 -1)
2(1 -1)
2(1 -1)
2(1 -1)
2(1 -1)
2(1 -1)
2(1 -1)
2(1 -1)
2(1 -1)
2(1 -1)
2(1 -1)
2(1 -1)
2(1 -1)
2(1 -1)
2(1 -1)
2(1 -1)
2(1 -1)
2(1 -1)
2(1 -1)
2(1 -1)
2(1 -1)
2(1 -1)
2(1 -1)
2(1 -1)
2(1 -1)
2(1 -1)
2(1 -1)
2(1 -1)
2(1 -1)
2(1 -1)
2(1 -1)
2(1 -1)
2(1 -1)
2(1 -1)
2(1 -1)
2(1 -1)
2(1 -1)
2(1 -1)
2(1 -1)
2(1 -1)
2(1 -1)
2(1 -1)
2(1 -1)
2(1 -1)
2(1 -1)
2(1 -1)
2(1 -1)
2(1 -1)
2(1 -1)
2(1 -1)
2(1 -1)
2(1 -1)
2(1 -1)
2(1 -1)
2(1 -1)
2(1 -1)
2(1 -1)
2(1 -1)
2(1 -1)
2(1 -1)
2(1 -1)
2(1 -1)
2(1 -1)
2(1 -1)
2(1 -1)
2(1 -1)
2(1 -1)
2(1 -1)
2(1 -1)
2(1 -1)
2(1 -1)
2(1 -1)
2(1 -1)
2(1 -1)
2(1 -1)
2(1 -1)
2(1 -1)
2(1 -1)
2(1 -1)
2(1 -1)
2(1 -1)
2(1 -1)
2(1 -1)
2(1 -1)
2(1 -1)
2(1 -1)
2(1 -1)
2(1 -1)
2(1 -1)
2(1 -1)
2(1 -1)
2(1 -1)
2(1 -1)
2(1 -1)
2(1 -1)
2(1 -1)
2(1 -1)
2(1 -1)
2(1 -1)
2(1 -1)
2(1 -1)
2(1 -1)
2(1 -1)
2(1 -1)
2(1 -1)
2(1 -1)
2(1 -1)
2(1 -1)
2(1 -1)
2(1 -1)
2(1 -1)
2(1 -1)
2(1 -1)
2(1 -1)
2(1 -1)
2(1 -1)
2(1 -1)
2(1 -1)
2(1 -1)
2(1 -1)
2(1 -1)
2(1 -1)
2(1 -1)
2(1 -1)
2(1 -1)
2(1 -1)
2(1 -1)
2(1 -1)
2(1 -1)
2(1 -1)
2(1 -1)
2(1 -1)
2(1 -1)
2(1 -1)
2(1 -1)
2(1 -1)
2(1 -1)
2(1 -1)
2(1 -1)
2(1 -1)
2(1 -1)
2(1 -1)
2(1 -1)
2(1 -1)
2(1 -1)
2(1 -1)
2(1 -1)
2(1 -1)
2(1 -1)
2(1 -1)
2(1 -1)
2(1 -1)
2(1 -1)
2(1 -1)
2(1 -1)
2(1 -1)
2(1 -1)
2(1 -1)
2(1 -1)
2(1 -1)
2(1 -1)
2(1 -1)
2(1 -1)
2(1 -1)
2(1 -1)
2(1 -1)
2(1 -1)
2(1 -1)
2(1 -1)
2(1 -1)
2(1 -1)
2(1 -1)
2(1 -1)
2(1 -1)
2(1 -1)
2(1 -1)
2(1 -1)
2(1 -1)
2(1 -1)
2(1 -1)
2(1 -1)
2(1 -1)
2(1 -1)
2(1 -1)
2(1 -1)
2(1 -1)
2(1 -1)
2(1 -1)
2(1 -1)
2(1 -1)
2(1 -1)
2(1 -1)
2(1 -1)
2(1 -1)
2(1 -1)
2(1 -1)
2(1 -1)
2(1 -1)
2(1 -1)
2(1 -1)
2(1 -1)
2(1 -1)
2(1 -1)
2(1 -1)
2(1 -1)
2(1 -1)
2(1 -1)
2(1 -1)
2(1 -1)
2(1 -1)
2(1 -1)
2(1 -1)
2(1 -1)
2(1 -1)
2(1 -1)
2(1 -1)
2(1 -1)
2(1 -1)
2(1 -1)
2(1 -1)
2(1 -1)
2(1 -1)
2(1 -1)
2(1 -1)
2(1 -1)
2(1 -1)
2(1 -1)
2(1 -1)
2(1 -1)
2(1 -1)
2(1 -1)
2(1 -1)
2(1 -1)
2(1 -1)
2(1 -1)
2(1 -1)
2(1 -1)
2(1 -1)
2(1 -1)
2(1 -1)
2(1 -1)
2(1 -1)
2(1 -1)
2(1 -1)
2(1 -1)
2(1 -1)
2(1 -1)
1(1)
1(1)
1(1)
1(1)
1(1)
1(1)
1(1)
1(1)
1(1)
1(1)
1(1)
1(1)
1(1)
1(1)
1(1)
1(1)
1(1)
1(1)
1(1)
1(1)
1(1)
1(1)
1(1)
1(1)
1(1)
1(1)
1(1)
1(1)
1(1)
1(1)
1(1)
1(1)
1(1)
1(1)
1(1)
1(1)
1(1)
1(1)
1(1)
1(1)
1(1)
1(1)
1(1)
1(1)
1(1)
1(1)
1(1)
1(1)
1(1)
1(1)
1(1)
1(1)
1(1)
1(1)
1(1)
1(1)
1(1)
1(1)
1(1)
1(1)
1(1)
1(1)
1(1)
1(1)
1(1)
1(1)
1(1)
1(1)
1(1)
1(1)
1(1)
1(1)
1(1)
1(1)
1(1)
1(1)
)

// edgeNormals

346
(
2(0 4)
2(1 76)
2(2 77)
2(3 78)
2(79 80)
2(81 76)
2(81 78)
2(82 20)
2(82 83)
2(84 85)
2(84 17)
2(86 85)
2(86 18)
2(87 19)
2(87 83)
2(88 89)
2(88 90)
2(91 92)
2(91 93)
2(94 95)
2(92 25)
2(90 22)
2(95 23)
2(93 24)
2(96 97)
2(5 98)
2(6 99)
2(100 101)
2(102 103)
2(104 105)
2(106 107)
2(106 108)
2(109 110)
2(111 108)
2(101 103)
2(112 105)
2(112 113)
2(114 115)
2(110 26)
2(116 31)
2(116 117)
2(118 28)
2(118 117)
2(119 120)
2(119 29)
2(121 120)
2(121 30)
2(122 123)
2(122 124)
2(125 126)
2(125 127)
2(128 129)
2(126 36)
2(127 32)
2(129 33)
2(123 34)
2(124 35)
2(130 131)
2(130 39)
2(132 133)
2(132 134)
2(135 131)
2(135 38)
2(133 134)
2(136 137)
2(138 139)
2(140 141)
2(140 142)
2(143 144)
2(143 145)
2(146 147)
2(146 148)
2(149 150)
2(151 152)
2(151 153)
2(154 155)
2(150 142)
2(155 139)
2(152 137)
2(153 144)
2(148 141)
2(156 157)
2(156 158)
2(159 160)
2(159 161)
2(162 163)
2(162 164)
2(165 163)
2(165 166)
2(167 168)
2(169 170)
2(169 168)
2(171 170)
2(171 158)
2(172 166)
2(172 173)
2(174 164)
2(175 176)
2(177 178)
2(179 180)
2(179 181)
2(182 183)
2(182 184)
2(185 186)
2(185 187)
2(188 189)
2(190 191)
2(190 192)
2(193 194)
2(183 192)
2(176 191)
2(178 194)
2(180 189)
2(181 186)
2(8 195)
2(9 196)
2(10 197)
2(11 198)
2(199 198)
2(199 195)
2(200 44)
2(200 201)
2(202 41)
2(202 201)
2(203 204)
2(203 42)
2(205 204)
2(205 43)
2(206 48)
2(206 207)
2(208 45)
2(208 207)
2(209 210)
2(209 46)
2(211 210)
2(211 47)
2(212 52)
2(212 213)
2(214 49)
2(214 213)
2(215 216)
2(215 50)
2(217 216)
2(217 51)
2(218 56)
2(218 219)
2(220 53)
2(220 219)
2(221 222)
2(221 54)
2(223 222)
2(223 55)
2(224 60)
2(224 225)
2(226 57)
2(226 225)
2(227 228)
2(227 58)
2(229 228)
2(229 59)
2(230 64)
2(230 231)
2(232 61)
2(232 231)
2(233 234)
2(233 62)
2(235 234)
2(235 63)
2(236 66)
2(237 238)
2(239 240)
2(241 242)
2(243 244)
2(12 245)
2(246 247)
2(13 68)
2(248 67)
2(248 249)
2(250 65)
2(250 249)
2(240 238)
2(251 252)
2(251 253)
2(254 255)
2(254 253)
2(256 257)
2(256 258)
2(259 257)
2(259 260)
2(261 262)
2(263 264)
2(263 265)
2(266 267)
2(268 269)
2(265 270)
2(267 271)
2(272 273)
2(272 274)
2(275 276)
2(277 278)
2(279 280)
2(281 282)
2(281 283)
2(284 285)
2(286 282)
2(287 288)
2(289 290)
2(291 292)
2(291 290)
2(293 292)
2(293 274)
2(294 295)
2(296 297)
2(296 298)
2(299 300)
2(301 302)
2(297 70)
2(298 71)
2(303 304)
2(303 305)
2(306 307)
2(306 75)
2(308 309)
2(308 310)
2(311 312)
2(311 313)
2(314 315)
2(316 305)
2(309 317)
2(295 74)
2(318 319)
2(320 321)
2(77 80)
2(113 115)
2(37 40)
2(161 322)
2(196 323)
2(197 323)
2(324 69)
2(271 270)
2(276 325)
2(326 327)
2(328 329)
2(327 329)
2(104 111)
2(147 145)
2(167 173)
2(184 187)
2(330 268)
2(331 246)
2(332 252)
2(333 334)
2(335 255)
2(336 260)
2(245 269)
2(261 266)
2(247 337)
2(279 317)
2(284 314)
2(287 315)
2(338 289)
2(288 318)
2(280 319)
2(339 313)
2(294 321)
2(301 73)
2(300 72)
2(340 283)
2(258 341)
2(285 342)
1(0)
1(1)
1(2)
1(3)
1(4)
1(5)
1(6)
1(7)
1(8)
1(9)
1(10)
1(11)
1(12)
1(13)
1(14)
1(15)
1(16)
1(17)
1(18)
1(19)
1(20)
1(21)
1(22)
1(23)
1(24)
1(25)
1(26)
1(27)
1(28)
1(29)
1(30)
1(31)
1(32)
1(33)
1(34)
1(35)
1(36)
1(37)
1(38)
1(39)
1(40)
1(41)
1(42)
1(43)
1(44)
1(45)
1(46)
1(47)
1(48)
1(49)
1(50)
1(51)
1(52)
1(53)
1(54)
1(55)
1(56)
1(57)
1(58)
1(59)
1(60)
1(61)
1(62)
1(63)
1(64)
1(65)
1(66)
1(67)
1(68)
1(69)
1(70)
1(71)
1(72)
1(73)
1(74)
1(75)
)

// featurePointNormals

228
(
3(0 4 81)
3(1 76 81)
3(2 77 80)
3(3 78 80)
3(82 83 84)
3(82 20 83)
3(84 85 86)
3(86 85 87)
3(88 89 90)
3(88 90 95)
3(91 92 93)
3(91 93 95)
3(96 97 99)
3(96 97 98)
3(100 101 103)
3(104 105 112)
3(106 107 110)
3(106 107 108)
3(112 113 115)
3(116 117 118)
3(116 31 117)
3(118 117 119)
3(119 120 121)
3(122 124 126)
3(122 123 129)
3(122 123 124)
3(125 126 127)
3(125 127 129)
3(130 131 133)
3(130 131 39)
3(132 134 135)
3(132 133 134)
3(136 137 144)
3(136 137 139)
3(138 139 142)
3(140 141 142)
3(143 144 145)
3(146 147 148)
3(146 148 150)
3(149 150 155)
3(151 152 155)
3(151 152 153)
3(156 158 171)
3(156 157 158)
3(156 157 159)
3(159 161 174)
3(159 160 162)
3(162 164 172)
3(162 163 165)
3(165 166 172)
3(167 168 169)
3(169 170 171)
3(175 176 183)
3(175 176 178)
3(177 178 180)
3(179 180 181)
3(182 183 184)
3(185 186 187)
3(185 186 189)
3(188 189 194)
3(190 191 192)
3(190 191 194)
3(8 195 199)
3(9 196 323)
3(10 197 199)
3(11 198 199)
3(200 201 202)
3(200 44 201)
3(202 201 203)
3(203 204 205)
3(206 207 208)
3(206 48 207)
3(208 207 209)
3(209 210 211)
3(212 213 214)
3(212 52 213)
3(214 213 215)
3(215 216 217)
3(218 219 220)
3(218 56 219)
3(220 219 221)
3(221 222 223)
3(224 225 226)
3(224 60 225)
3(226 225 227)
3(227 228 229)
3(230 231 232)
3(230 64 231)
3(232 231 233)
3(233 234 235)
3(236 66 238)
3(237 238 240)
3(241 242 263)
3(243 244 263)
3(248 249 250)
3(248 67 249)
3(251 253 254)
3(251 252 253)
3(254 253 256)
3(256 257 259)
3(263 265 270)
3(266 267 271)
3(272 274 293)
3(272 273 274)
3(272 273 275)
3(275 276 280)
3(277 278 281)
3(281 282 284)
3(289 290 291)
3(291 292 293)
3(294 295 306)
3(296 297 301)
3(296 297 298)
3(299 300 306)
3(303 304 305)
3(308 310 311)
3(308 309 310)
3(311 312 318)
3(326 327 329)
2(1 76)
2(0 4)
2(2 77)
2(3 78)
2(82 20)
2(84 17)
2(86 18)
2(87 19)
2(92 25)
2(90 22)
2(95 23)
2(93 24)
2(5 98)
2(6 99)
3(100 101 105)
3(102 103 109)
3(104 105 329)
3(111 108 113)
2(106 108)
2(110 26)
2(116 31)
2(118 28)
2(119 29)
2(121 30)
2(126 36)
2(127 32)
2(129 33)
2(123 34)
2(124 35)
2(130 39)
2(132 133)
2(135 38)
3(140 141 145)
3(146 147 153)
3(165 163 167)
3(171 170 173)
3(179 181 184)
3(185 187 192)
2(9 196)
2(8 195)
2(10 197)
2(11 198)
2(200 44)
2(202 41)
2(203 42)
2(205 43)
2(206 48)
2(208 45)
2(209 46)
2(211 47)
2(212 52)
2(214 49)
2(215 50)
2(217 51)
2(218 56)
2(220 53)
2(221 54)
2(223 55)
2(224 60)
2(226 57)
2(227 58)
2(229 59)
2(230 64)
2(232 61)
2(233 62)
2(235 63)
2(236 66)
3(268 269 330)
3(241 242 330)
3(246 247 331)
2(239 240)
3(243 244 331)
3(259 260 332)
3(251 252 332)
3(254 255 335)
3(256 258 336)
2(324 69)
2(12 245)
3(12 245 247)
3(266 267 69)
3(13 68 269)
2(13 68)
2(261 262)
3(261 262 270)
2(248 67)
2(250 65)
3(309 317 279)
3(279 280 317)
3(281 283 340)
3(284 285 314)
3(314 315 284)
3(286 282 289)
3(287 288 315)
3(287 288 292)
3(318 319 288)
3(311 313 339)
3(308 309 305)
3(301 302 303)
3(294 295 321)
3(296 298 300)
2(301 73)
2(297 70)
2(298 71)
2(303 304)
2(306 75)
2(300 72)
2(314 315)
2(295 74)
2(37 40)
)

// featurePointEdges

228
(
3(0 6 5)
3(1 5 232)
3(4 232 2)
3(4 6 3)
3(10 9 8)
3(7 14 8)
3(9 11 12)
3(11 14 13)
3(15 21 16)
3(19 22 16)
3(17 20 18)
3(19 23 18)
3(26 37 24)
3(25 34 24)
3(27 34 28)
3(29 35 36)
3(30 32 38)
3(30 33 31)
3(37 233 36)
3(41 42 40)
3(39 45 40)
3(44 43 42)
3(43 45 46)
3(49 52 48)
3(51 55 47)
3(47 56 48)
3(49 53 50)
3(51 54 50)
3(57 63 234)
3(57 61 58)
3(62 61 60)
3(59 63 60)
3(68 78 64)
3(65 77 64)
3(67 76 65)
3(66 80 67)
3(68 79 69)
3(70 80 71)
3(72 76 71)
3(75 77 72)
3(75 78 73)
3(73 79 74)
3(235 93 82)
3(81 91 82)
3(81 83 84)
3(84 235 96)
3(83 85 86)
3(86 96 94)
3(85 87 88)
3(88 94 95)
3(90 91 89)
3(90 92 93)
3(101 110 97)
3(98 111 97)
3(99 112 98)
3(99 113 100)
3(101 109 102)
3(103 113 104)
3(105 112 103)
3(108 111 105)
3(106 109 107)
3(108 110 106)
3(236 119 114)
3(115 236 237)
3(116 237 118)
3(117 118 119)
3(122 123 121)
3(120 126 121)
3(125 124 123)
3(124 126 127)
3(130 131 129)
3(128 134 129)
3(133 132 131)
3(132 134 135)
3(138 139 137)
3(136 142 137)
3(141 140 139)
3(140 142 143)
3(146 147 145)
3(144 150 145)
3(149 148 147)
3(148 150 151)
3(154 155 153)
3(152 158 153)
3(157 156 155)
3(156 158 159)
3(162 163 161)
3(160 166 161)
3(165 164 163)
3(164 166 167)
3(169 179 168)
3(169 180 170)
3(190 191 171)
3(190 195 172)
3(178 179 177)
3(176 180 177)
3(183 184 182)
3(181 187 182)
3(186 185 184)
3(185 187 188)
3(191 194 239)
3(192 195 239)
3(240 210 197)
3(196 208 197)
3(196 199 198)
3(200 240 198)
3(199 201 202)
3(201 204 203)
3(207 208 206)
3(207 209 210)
3(211 229 220)
3(212 216 215)
3(212 217 213)
3(214 221 220)
3(218 227 219)
3(223 224 225)
3(222 228 223)
3(224 230 231)
3(242 243 241)
3(1 270 271)
3(0 270 274)
3(2 271 272)
3(3 273 274)
3(7 287 290)
3(10 287 288)
3(12 288 289)
3(13 289 290)
3(20 291 295)
3(21 292 293)
3(22 293 294)
3(23 294 295)
3(25 275 297)
3(26 276 277)
3(241 35 27)
3(28 32 242)
3(243 244 29)
3(244 33 233)
3(31 277 296)
3(38 296 297)
3(39 298 301)
3(41 298 299)
3(44 299 300)
3(46 300 301)
3(52 302 306)
3(53 302 303)
3(54 303 304)
3(55 304 305)
3(56 305 306)
3(58 307 309)
3(59 308 310)
3(62 308 309)
3(66 245 69)
3(74 245 70)
3(87 89 246)
3(246 95 92)
3(100 247 102)
3(107 247 104)
3(115 278 279)
3(114 278 281)
3(116 279 280)
3(117 280 281)
3(120 311 314)
3(122 311 312)
3(125 312 313)
3(127 313 314)
3(128 315 318)
3(130 315 316)
3(133 316 317)
3(135 317 318)
3(136 319 322)
3(138 319 320)
3(141 320 321)
3(143 321 322)
3(144 323 326)
3(146 323 324)
3(149 324 325)
3(151 325 326)
3(152 327 330)
3(154 327 328)
3(157 328 329)
3(159 329 330)
3(160 331 334)
3(162 331 332)
3(165 332 333)
3(167 333 334)
3(168 284 336)
3(248 193 256)
3(248 171 251)
3(249 174 256)
3(170 284 337)
3(249 172 251)
3(253 188 250)
3(252 181 250)
3(252 183 268)
3(268 186 253)
3(238 282 339)
3(173 282 338)
3(173 254 174)
3(192 255 238)
3(193 254 175)
3(175 283 338)
3(189 283 339)
3(194 255 189)
3(176 335 337)
3(178 335 336)
3(267 228 257)
3(200 262 257)
3(202 267 269)
3(258 269 203)
3(259 226 258)
3(260 206 204)
3(205 261 259)
3(260 209 205)
3(262 230 261)
3(264 225 263)
3(227 222 263)
3(215 265 219)
3(211 231 264)
3(213 266 214)
3(265 340 343)
3(216 340 341)
3(217 341 342)
3(218 285 343)
3(221 344 345)
3(266 342 345)
3(226 285 286)
3(229 286 344)
3(234 307 310)
)

// regionEdges

76
(
270
271
272
273
274
275
276
277
278
279
280
281
282
283
284
285
286
287
288
289
290
291
292
293
294
295
296
297
298
299
300
301
302
303
304
305
306
307
308
309
310
311
312
313
314
315
316
317
318
319
320
321
322
323
324
325
326
327
328
329
330
331
332
333
334
335
336
337
338
339
340
341
342
343
344
345
)



// ************************************************************************* //
