/*--------------------------------*- C++ -*----------------------------------*\
  =========                 |
  \\      /  F ield         | OpenFOAM: The Open Source CFD Toolbox
   \\    /   O peration     | Website:  https://openfoam.org
    \\  /    A nd           | Version:  8
     \\/     M anipulation  |
\*---------------------------------------------------------------------------*/
FoamFile
{
    version     2.0;
    format      ascii;
    class       featureEdgeMesh;
    location    "constant/triSurface";
    object      buildings.eMesh;
}
// * * * * * * * * * * * * * * * * * * * * * * * * * * * * * * * * * * * * * //


// points:

232
(
(108.4446 -70.945702 21.945601)
(216.60693 -8.352478 21.945601)
(279.08762 -116.32031 21.945601)
(170.92528 -178.91354 21.945601)
(-4.289073 -136.18436 21.945601)
(87.33976 -83.159012 21.945601)
(36.120518 -256.92465 21.945601)
(149.82043 -191.12685 21.945601)
(-186.59464 -176.03679 10.9728)
(-149.83459 -285.87256 10.9728)
(-24.247263 -148.0424 10.9728)
(13.675066 -263.22937 10.9728)
(-92.845459 -120.04704 47.548801)
(-188.37257 -152.38361 47.548801)
(-195.21373 -132.17412 47.548801)
(-114.18146 -32.771545 47.548801)
(-245.62004 16.733253 7.3802977)
(-92.845459 86.797043 7.3802977)
(-92.845459 -32.771545 47.548801)
(-190.63541 101.75468 10.9728)
(-174.01762 73.249733 10.9728)
(-234.02237 87.158897 10.9728)
(-257.94293 45.205021 10.9728)
(-28.643129 163.50838 9.4488001)
(-215.66107 160.24789 9.4488001)
(-170.30049 81.163284 9.4488001)
(-39.40575 183.01317 9.4488001)
(-131.98851 208.23997 9.4488001)
(92.77774 133.18112 18.288)
(166.29901 112.55715 18.288)
(217.09483 35.192936 18.288)
(92.77774 -46.431248 18.288)
(68.848907 52.296951 17.95204)
(64.369713 52.296951 15.619125)
(46.057384 52.296951 18.295639)
(46.057384 52.296951 21.327515)
(68.848907 52.296951 21.334555)
(46.057384 -52.306854 21.327515)
(46.057384 -52.306854 18.295639)
(64.369713 -52.306854 15.619125)
(68.848907 -52.306854 17.95204)
(68.848907 -52.306854 21.334555)
(62.906788 -52.933601 12.7762)
(62.906788 52.933601 12.7762)
(58.724545 52.933601 12.7762)
(58.724545 -52.933601 12.7762)
(43.814999 52.933601 3.2504151)
(43.814999 -52.933601 3.2504151)
(49.387074 52.933601 3.2504151)
(49.387074 -52.933601 3.2504151)
(62.906788 52.933601 9.7762003)
(62.906788 -52.933601 9.7762003)
(-45.768139 52.296951 19.348541)
(-64.194481 52.296951 16.655361)
(-68.386971 52.296951 18.838953)
(-68.386971 52.296951 22.221468)
(-45.768139 52.296951 22.380415)
(-68.386971 -52.306854 22.221468)
(-68.386971 -52.306854 18.838953)
(-64.194481 -52.306854 16.655361)
(-45.768139 -52.306854 22.380415)
(-45.768139 -52.306854 19.348541)
(-34.290001 71.983597 5.9689999)
(-34.290001 113.3348 5.9689999)
(34.445309 113.3348 5.9689999)
(34.445309 71.983597 5.9689999)
(63.808437 17.9832 5.0545998)
(63.808437 51.5112 5.0545998)
(71.123642 17.9832 5.0545998)
(71.123642 51.5112 5.0545998)
(63.808437 -51.5112 5.0545998)
(63.808437 -17.9832 5.0545998)
(71.123642 -51.5112 5.0545998)
(71.123642 -17.9832 5.0545998)
(-63.648762 17.9832 5.0545998)
(-70.963959 17.9832 5.0545998)
(-63.648762 51.5112 5.0545998)
(-70.963959 51.5112 5.0545998)
(-50.875004 85.975845 5.0545998)
(-64.004364 85.975845 5.0545998)
(-50.875004 95.119843 5.0545998)
(-64.004364 95.119843 5.0545998)
(-63.648762 -51.5112 5.0545998)
(-70.963959 -51.5112 5.0545998)
(-63.648762 -17.9832 5.0545998)
(-70.963959 -17.9832 5.0545998)
(-70.354362 1.9304 16.2052)
(-70.354362 5.5626001 16.2052)
(-63.648762 1.9304 16.2052)
(-63.648762 5.5626001 16.2052)
(-63.039162 -93.713318 5.0545998)
(-63.039162 -69.202316 5.0545998)
(39.4716 -84.607399 4.7498002)
(39.4716 -75.285599 4.7498002)
(-70.354362 -93.713318 5.0545998)
(-70.354362 -69.202316 5.0545998)
(10.272901 -80.847923 15.314949)
(-10.272901 -80.847923 15.314949)
(10.272901 -79.055847 15.314949)
(-10.272901 -79.055847 15.314949)
(39.4716 -84.607399 3.8354001)
(39.4716 -75.285599 3.8354001)
(-62.906788 52.933601 12.7762)
(-62.906788 -52.933601 12.7762)
(-58.724545 -52.933601 12.7762)
(-58.724545 52.933601 12.7762)
(-43.577694 -52.933601 3.0987999)
(-49.149769 -52.933601 3.0987999)
(-62.906788 -52.933601 9.7762003)
(-62.906788 52.933601 9.7762003)
(-56.777889 75.382668 5.8673997)
(-18.5928 61.074532 5.8673997)
(-18.5928 65.90345 5.8673997)
(-40.6908 75.382668 5.8673997)
(-40.6908 42.595798 5.8673997)
(-43.611801 72.263 9.1694002)
(-43.611801 42.595798 9.1694002)
(-56.777889 72.263 9.1694002)
(-114.18147 -104.74419 7.3802977)
(216.60693 -8.352478 1.0649537e-13)
(108.4446 -70.945702 -2.7711167e-13)
(279.08762 -116.32031 1.5417917e-12)
(170.92528 -178.91354 1.1581847e-12)
(87.33976 -83.159012 5.3290705e-15)
(-4.289073 -136.18436 5.3290705e-15)
(36.120518 -256.92465 5.3290705e-15)
(149.82043 -191.12685 5.3290705e-15)
(-24.247263 -148.0424 1.7763568e-15)
(-186.59464 -176.03679 1.7763568e-15)
(-149.83459 -285.87256 1.7763568e-15)
(13.675066 -263.22937 1.7763568e-15)
(-188.37257 -152.38361 0)
(-92.845459 -120.04704 0)
(-114.18147 -104.74419 47.548801)
(-195.21367 -132.17409 7.3802977)
(-114.18146 -32.771545 7.3802977)
(-92.845459 -32.771545 7.3802977)
(-92.845459 86.797043 0)
(-245.62004 16.733253 0)
(-174.01762 73.249733 -8.8817842e-16)
(-190.63541 101.75468 -8.8817842e-16)
(-234.02237 87.158897 -8.8817842e-16)
(-257.94293 45.205021 -8.8817842e-16)
(-28.643129 163.50838 0)
(-39.40575 183.01317 0)
(-131.98851 208.23997 0)
(-215.66107 160.24789 0)
(-170.30049 81.163284 0)
(166.29901 112.55715 -1.7763568e-15)
(92.77774 -46.431248 -1.7763568e-15)
(217.09483 35.192936 -1.7763568e-15)
(63.844009 52.296951 18.727837)
(63.844009 -52.306854 18.727837)
(59.601086 52.933601 9.7762003)
(59.601086 -52.933601 9.7762003)
(-63.668774 52.296951 19.764072)
(-63.668774 -52.306854 19.764072)
(-34.290001 113.3348 0)
(-34.290001 71.983597 0)
(34.445309 113.3348 2.220446e-16)
(34.445309 71.983597 2.220446e-16)
(63.808437 51.5112 0)
(63.808437 17.9832 0)
(71.123642 17.9832 0)
(71.123642 51.5112 0)
(63.808437 -17.9832 0)
(63.808437 -51.5112 0)
(71.123642 -51.5112 0)
(71.123642 -17.9832 -1.110223e-16)
(-70.963959 17.9832 -1.110223e-16)
(-63.648762 17.9832 -1.110223e-16)
(-63.648762 51.5112 -1.110223e-16)
(-70.963959 51.5112 -1.110223e-16)
(-64.004364 85.975845 -1.110223e-16)
(-50.875004 85.975845 -1.110223e-16)
(-50.875004 95.119843 -1.110223e-16)
(-64.004364 95.119843 -1.110223e-16)
(-70.963959 -51.5112 2.220446e-16)
(-63.648762 -51.5112 2.220446e-16)
(-63.648762 -17.9832 2.220446e-16)
(-70.963959 -17.9832 2.220446e-16)
(-70.354362 5.5626001 2.220446e-16)
(-70.354362 1.9304 2.220446e-16)
(-63.648762 1.9304 2.220446e-16)
(-63.648762 5.5626001 2.220446e-16)
(-63.039162 -93.713318 -1.110223e-16)
(-63.039162 -84.607399 3.8354001)
(-63.039162 -84.607399 4.7498002)
(-63.039162 -75.285599 3.8354001)
(-63.039162 -69.202316 -1.110223e-16)
(-63.039162 -75.285599 4.7498002)
(-10.272901 -79.055847 4.7498002)
(-10.272901 -80.847923 4.7498002)
(10.272901 -80.847923 4.7498002)
(10.272901 -79.055847 4.7498002)
(10.924885 -75.285599 0)
(-39.047749 -75.285599 0)
(-39.047749 -75.285599 3.8354001)
(10.924885 -75.285599 3.8354001)
(-39.047749 -84.607399 3.8354001)
(-39.047749 -84.607399 0)
(10.924885 -84.607399 0)
(10.924885 -84.607399 3.8354001)
(-70.354362 -69.202316 -1.110223e-16)
(-70.354362 -93.713318 -1.110223e-16)
(-53.079262 42.595798 9.1694002)
(-53.079262 52.933601 9.1694002)
(-43.577694 42.595798 3.0987999)
(-49.149769 42.595798 3.0987999)
(-56.777889 42.595798 7.9724455)
(-59.601086 -52.933601 9.7762003)
(-56.777889 52.933601 7.9724455)
(-59.601086 52.933601 9.7762003)
(-56.777889 52.933601 9.1694002)
(-43.611801 72.263 5.8673997)
(-43.611801 42.595798 5.8673997)
(-40.6908 61.074532 5.8673997)
(-56.777889 72.263 5.8673997)
(-40.6908 65.90345 5.8673997)
(-40.6908 61.074532 0)
(-18.5928 61.074532 0)
(-18.5928 65.90345 0)
(-40.6908 42.595798 0)
(-40.6908 75.382668 0)
(-40.6908 65.90345 0)
(-56.777889 42.595798 0)
(-56.777889 75.382668 0)
(92.77774 133.18112 -1.7763568e-15)
(225.00644 -147.61693 1.3499882e-12)
(-140.60901 -136.21532 0)
(-106.65308 -149.09204 1.7763568e-15)
(-106.65308 -149.09204 10.9728)
)


// edges:

346
(
(120 0)
(119 1)
(121 2)
(3 122)
(2 3)
(1 0)
(0 3)
(5 123)
(4 5)
(6 4)
(4 124)
(7 6)
(6 125)
(7 126)
(5 7)
(231 8)
(8 9)
(10 231)
(11 10)
(9 11)
(10 127)
(8 128)
(9 129)
(11 130)
(12 13)
(13 131)
(132 12)
(14 133)
(134 14)
(135 15)
(16 17)
(17 137)
(16 134)
(136 17)
(14 13)
(15 133)
(18 15)
(12 18)
(16 138)
(20 139)
(19 20)
(19 140)
(21 19)
(22 21)
(21 141)
(20 22)
(22 142)
(24 25)
(25 23)
(23 26)
(26 27)
(27 24)
(23 143)
(26 144)
(27 145)
(24 146)
(25 147)
(28 29)
(29 148)
(31 149)
(30 31)
(29 30)
(30 150)
(31 28)
(32 33)
(33 34)
(35 151)
(34 35)
(36 32)
(151 36)
(152 37)
(37 38)
(38 39)
(40 41)
(41 152)
(39 40)
(38 34)
(39 33)
(40 32)
(41 36)
(37 35)
(43 44)
(42 43)
(44 46)
(45 44)
(46 48)
(47 46)
(48 153)
(49 48)
(153 50)
(51 50)
(50 43)
(154 51)
(51 42)
(47 49)
(49 154)
(45 47)
(52 53)
(53 54)
(54 55)
(55 155)
(56 52)
(155 56)
(57 58)
(156 57)
(58 59)
(61 60)
(60 156)
(59 61)
(56 60)
(52 61)
(53 59)
(54 58)
(55 57)
(158 62)
(157 63)
(159 64)
(160 65)
(65 64)
(62 65)
(67 161)
(66 67)
(66 162)
(68 66)
(69 68)
(68 163)
(67 69)
(69 164)
(71 165)
(70 71)
(70 166)
(72 70)
(73 72)
(72 167)
(71 73)
(73 168)
(75 169)
(74 75)
(74 170)
(76 74)
(77 76)
(76 171)
(75 77)
(77 172)
(79 173)
(78 79)
(78 174)
(80 78)
(81 80)
(80 175)
(79 81)
(81 176)
(83 177)
(82 83)
(82 178)
(84 82)
(85 84)
(84 179)
(83 85)
(85 180)
(87 181)
(86 87)
(86 182)
(88 86)
(89 88)
(88 183)
(87 89)
(89 184)
(90 185)
(91 90)
(189 91)
(187 92)
(93 190)
(196 197)
(197 188)
(199 200)
(95 203)
(94 95)
(94 204)
(90 94)
(95 91)
(97 192)
(96 97)
(96 193)
(98 96)
(99 98)
(98 194)
(97 99)
(99 191)
(202 201)
(93 92)
(92 100)
(198 101)
(186 199)
(202 100)
(93 101)
(103 104)
(102 103)
(105 104)
(104 106)
(206 105)
(106 107)
(207 106)
(208 107)
(107 210)
(212 211)
(210 108)
(109 108)
(108 103)
(212 109)
(109 102)
(110 217)
(111 112)
(112 218)
(218 113)
(111 216)
(111 220)
(112 221)
(114 222)
(216 114)
(110 113)
(113 223)
(116 215)
(115 116)
(117 115)
(115 214)
(209 225)
(114 215)
(116 205)
(110 226)
(213 117)
(117 217)
(1 2)
(18 136)
(227 28)
(45 42)
(62 63)
(63 64)
(198 195)
(100 101)
(105 102)
(133 118)
(118 134)
(135 118)
(136 135)
(152 151)
(154 153)
(155 156)
(186 187)
(190 188)
(192 191)
(190 187)
(193 192)
(191 194)
(199 197)
(198 202)
(186 188)
(205 206)
(209 208)
(211 209)
(210 212)
(213 211)
(206 213)
(214 215)
(217 214)
(216 219)
(218 224)
(205 207)
(193 194)
(208 207)
(119 120)
(121 119)
(228 121)
(122 228)
(120 122)
(131 229)
(229 132)
(132 137)
(157 158)
(159 157)
(160 159)
(158 160)
(195 196)
(200 201)
(185 189)
(225 222)
(226 225)
(123 124)
(124 125)
(125 126)
(126 123)
(127 230)
(230 128)
(128 129)
(129 130)
(130 127)
(137 138)
(138 131)
(139 140)
(140 141)
(141 142)
(142 139)
(143 144)
(144 145)
(145 146)
(146 147)
(147 143)
(148 227)
(149 150)
(150 148)
(227 149)
(161 162)
(162 163)
(163 164)
(164 161)
(165 166)
(166 167)
(167 168)
(168 165)
(169 170)
(170 171)
(171 172)
(172 169)
(173 174)
(174 175)
(175 176)
(176 173)
(177 178)
(178 179)
(179 180)
(180 177)
(181 182)
(182 183)
(183 184)
(184 181)
(203 204)
(204 185)
(189 203)
(196 200)
(201 195)
(219 220)
(220 221)
(221 224)
(222 219)
(223 226)
(224 223)
)

// * * * * * * * * * * * * * * * * * * * * * * * * * * * * * * * * * * * * * //


// ************************************************************************* //
